20
Properties=species:S:1:pos:R:3 gdb_73413=T pbc="F F F"
C        0.01100000       1.45910000       0.02730000
C        0.00140000      -0.05670000      -0.04570000
C        0.39020000      -0.68110000      -1.40000000
C       -0.21650000      -2.11890000      -1.36870000
C       -0.88990000      -2.20990000       0.00870000
C        0.05750000      -2.12970000       1.20470000
C        0.63510000      -0.75380000       1.16510000
N       -0.67040000      -0.99520000       1.86960000
C       -1.27880000      -0.78130000       0.46020000
H        1.01570000       1.85730000      -0.15630000
H       -0.65900000       1.89280000      -0.72360000
H       -0.31080000       1.80650000       1.01430000
H       -0.02730000      -0.09570000      -2.22700000
H        1.47690000      -0.68690000      -1.53460000
H       -0.95010000      -2.25240000      -2.17060000
H        0.54070000      -2.89840000      -1.49810000
H       -1.66390000      -2.97110000       0.11420000
H        0.49490000      -2.93780000       1.78040000
H        1.52880000      -0.46850000       1.71050000
H       -2.27870000      -0.36230000       0.35500000
