20
Properties=species:S:1:pos:R:3 gdb_63428=T pbc="F F F"
C        0.37830000       1.33930000       0.21870000
C       -0.06900000      -0.09170000      -0.03710000
C       -1.57170000      -0.26720000       0.13970000
C        0.52670000      -0.78610000      -1.29250000
C        1.14060000      -1.77810000      -0.28750000
C        2.66870000      -1.90670000      -0.29130000
C        3.16750000      -2.72660000       0.81080000
N        3.55540000      -3.38650000       1.67600000
O        0.65630000      -1.02230000       0.83250000
H        1.46140000       1.43820000       0.10450000
H       -0.10870000       2.02760000      -0.48050000
H        0.11510000       1.64260000       1.23700000
H       -2.12190000       0.36590000      -0.56490000
H       -1.86560000      -1.30720000      -0.02820000
H       -1.86820000       0.01060000       1.15580000
H       -0.19440000      -1.20280000      -1.99720000
H        1.25650000      -0.18260000      -1.83780000
H        0.69580000      -2.78140000      -0.31250000
H        2.99140000      -2.35660000      -1.23820000
H        3.11960000      -0.91060000      -0.22770000
