12
Properties=species:S:1:pos:R:3 gdb_131245=T pbc="F F F"
O        0.08150000       1.29880000      -0.04030000
C        0.06530000      -0.04640000      -0.07270000
C       -0.00220000      -0.82680000      -1.20950000
N        0.01130000      -2.11540000      -0.68160000
N       -0.02290000      -3.43110000      -1.06500000
C        0.02960000      -4.05000000       0.07070000
O        0.09590000      -3.24890000       1.17990000
C        0.08230000      -1.99720000       0.65950000
N        0.11870000      -0.77200000       1.10590000
H        0.13260000       1.55100000       0.88990000
H       -0.05430000      -0.60550000      -2.25790000
H        0.02610000      -5.11480000       0.22550000
