17
Properties=species:S:1:pos:R:3 gdb_69755=T pbc="F F F"
C       -0.10310000       1.52980000       0.04700000
C        0.15800000       0.06130000       0.00110000
O       -0.76350000      -0.81720000       0.66980000
C        0.63270000      -0.92840000       0.98590000
C        1.29110000      -1.80270000      -0.11060000
C        0.39490000      -2.90490000      -0.74640000
C       -0.10230000      -1.85940000      -1.77130000
O       -0.84190000      -1.90440000      -2.70810000
C        0.79600000      -0.75260000      -1.16930000
H        0.79400000       2.09260000      -0.22940000
H       -0.90170000       1.80060000      -0.65240000
H       -0.41240000       1.82730000       1.05260000
H        0.90730000      -0.82610000       2.03050000
H        2.35200000      -2.00870000       0.01520000
H        0.96000000      -3.70730000      -1.23140000
H       -0.38330000      -3.34080000      -0.11710000
H        1.46780000      -0.20300000      -1.82880000
