17
Properties=species:S:1:pos:R:3 gdb_75817=T pbc="F F F"
O        0.14940000       1.26230000      -0.42560000
C        0.13430000      -0.09930000      -0.09240000
C        0.14940000      -0.44630000       1.40260000
O        0.84720000      -0.22530000       2.34120000
O       -1.03340000      -1.12620000       1.35720000
C       -1.25690000      -0.77010000      -0.05490000
C       -2.51090000       0.03380000      -0.42520000
C       -2.62630000      -0.85010000      -1.70210000
C       -1.66020000      -1.87540000      -1.03890000
H        0.86840000       1.67920000       0.06280000
H        0.87270000      -0.67820000      -0.66570000
H       -3.31550000      -0.16340000       0.28780000
H       -2.37950000       1.10950000      -0.54520000
H       -3.62080000      -1.21090000      -1.96720000
H       -2.18130000      -0.36830000      -2.57550000
H       -0.87010000      -2.32240000      -1.64750000
H       -2.20200000      -2.66970000      -0.51880000
