17
Properties=species:S:1:pos:R:3 gdb_77220=T pbc="F F F"
C        0.22820000       1.71460000      -0.10810000
C        0.05180000       0.20540000      -0.16460000
C        0.60820000      -0.48120000      -1.45950000
N        1.79250000      -0.93550000      -0.71630000
C        1.12960000      -0.65890000       0.57970000
C        1.96670000       0.00840000       1.57700000
N        2.60430000       0.54420000       2.37830000
C       -0.28450000      -1.58660000      -1.97230000
O       -0.06120000      -2.75860000      -1.79650000
H        1.24960000       2.00290000      -0.37240000
H       -0.45910000       2.20360000      -0.80570000
H        0.01960000       2.09460000       0.89640000
H       -0.97160000      -0.07500000       0.09590000
H        0.82280000       0.21060000      -2.28620000
H        1.99650000      -1.92000000      -0.86650000
H        0.67800000      -1.54210000       1.04790000
H       -1.18570000      -1.24380000      -2.52850000
