17
Properties=species:S:1:pos:R:3 gdb_48919=T pbc="F F F"
O        0.08660000      -0.09890000      -0.00370000
C        0.07510000       1.10440000       0.00430000
C        1.28720000       1.96440000       0.00190000
O        2.61800000       1.37090000      -0.01210000
C        2.84770000       2.82290000      -0.00280000
C        1.71850000       3.05890000      -1.04670000
C        1.01060000       4.37530000      -0.75840000
C        1.02190000       4.36350000       0.80270000
C        1.73370000       3.04290000       1.06080000
H       -0.87730000       1.68420000       0.01460000
H        3.88070000       3.17110000      -0.00760000
H        1.88560000       2.72730000      -2.07070000
H        1.55600000       5.22780000      -1.17450000
H       -0.00110000       4.40520000      -1.17320000
H        1.57350000       5.20960000       1.22370000
H        0.01640000       4.38700000       1.23260000
H        1.91550000       2.69570000       2.07700000
