21
Properties=species:S:1:pos:R:3 gdb_79065=T pbc="F F F"
C       -0.02250000       1.61260000      -0.02570000
C        0.10670000       0.09510000      -0.01070000
C        0.71230000      -0.65670000      -1.18930000
C        2.26250000      -0.76430000      -1.11100000
C        3.00430000       0.15190000      -0.20030000
C        2.40660000       0.16610000       0.99560000
C        1.14480000      -0.66920000       0.94340000
C        0.61030000      -1.20470000       2.25620000
C        1.38230000      -1.64270000      -0.26680000
H        0.93340000       2.09830000      -0.23470000
H       -0.73300000       1.92190000      -0.80100000
H       -0.39720000       1.99190000       0.93230000
H       -0.87210000      -0.35430000       0.19440000
H        0.22220000      -0.84030000      -2.13920000
H        2.72880000      -1.17100000      -2.00130000
H        3.86440000       0.73740000      -0.50190000
H        2.66640000       0.79570000       1.83880000
H        0.34220000      -0.38810000       2.93650000
H       -0.28520000      -1.81610000       2.10190000
H        1.35800000      -1.82550000       2.76280000
H        1.37560000      -2.72680000      -0.25580000
