10
Properties=species:S:1:pos:R:3 gdb_4254=T pbc="F F F"
N       -0.07270000       1.29730000       0.27030000
C       -0.08850000       0.07420000      -0.00930000
O        1.09000000      -0.55210000      -0.49440000
C        1.16540000      -1.85510000      -0.81990000
O        2.14870000      -2.37410000      -1.22400000
O        0.00070000      -2.57900000      -0.65350000
C       -1.10730000      -1.94490000      -0.18690000
N       -1.21170000      -0.72360000       0.12770000
H        0.84880000       1.69900000       0.09860000
H       -1.94040000      -2.63580000      -0.10820000
