20
Properties=species:S:1:pos:R:3 gdb_14469=T pbc="F F F"
C       -0.07480000       1.56310000      -0.09270000
C       -0.00280000       0.07460000      -0.00560000
C        0.31320000      -1.00290000      -1.01570000
C        1.37090000      -1.63090000      -0.11600000
C        0.64020000      -0.92970000       1.06680000
C        1.37430000      -0.55610000       2.32750000
C       -0.73370000      -1.66070000       1.11830000
C       -1.01600000      -1.02150000      -0.23610000
H        0.92230000       2.01820000      -0.13110000
H       -0.61070000       1.87050000      -0.99790000
H       -0.60320000       1.99690000       0.76490000
H        0.31840000      -0.91020000      -2.09500000
H        1.45950000      -2.72400000      -0.07560000
H        2.35820000      -1.19220000      -0.29320000
H        2.26560000       0.04380000       2.11160000
H        0.73820000       0.02140000       3.00770000
H        1.70330000      -1.45370000       2.86580000
H       -0.71870000      -2.75480000       1.20170000
H       -1.37930000      -1.24520000       1.89880000
H       -1.96240000      -0.94220000      -0.75720000
