23
Properties=species:S:1:pos:R:3 gdb_89061=T pbc="F F F"
C        0.09080000       1.47110000      -0.27490000
C       -0.02260000       0.01280000       0.08960000
O        1.19090000      -0.74050000       0.19940000
C        0.38620000      -0.57640000       1.37680000
C        0.99740000       0.17590000       2.53370000
C        2.07170000      -0.65530000       3.25450000
C        2.69730000       0.07170000       4.42530000
C        2.03610000       0.04890000       5.78180000
C        3.33000000      -0.69630000       5.55640000
H        0.88030000       1.97330000       0.28680000
H        0.31780000       1.57470000      -1.34130000
H       -0.85720000       1.98600000      -0.08410000
H       -0.80930000      -0.51770000      -0.45290000
H       -0.12870000      -1.49510000       1.67280000
H        1.43940000       1.11350000       2.18270000
H        0.20220000       0.44270000       3.24250000
H        1.62810000      -1.59560000       3.60940000
H        2.84490000      -0.93470000       2.52810000
H        3.18810000       1.00530000       4.15860000
H        2.05710000       0.94760000       6.38850000
H        1.12930000      -0.53780000       5.89260000
H        3.28880000      -1.78000000       5.51580000
H        4.23550000      -0.30490000       6.00680000
