17
Properties=species:S:1:pos:R:3 gdb_40529=T pbc="F F F"
C        0.20260000       1.44240000       0.01280000
O        1.18740000       0.43840000      -0.18740000
C       -0.17290000       0.01380000       0.02520000
C       -0.45120000      -0.70700000       1.26750000
C       -1.31820000      -1.68190000       1.56430000
C       -1.03100000      -1.89900000       3.06130000
C       -0.99610000      -0.43470000       3.59570000
C        0.23320000      -0.49250000       2.63910000
O        0.43630000      -1.87190000       3.08250000
H        0.26950000       1.98880000       0.95310000
H       -0.04280000       2.04770000      -0.85920000
H       -0.65680000      -0.38180000      -0.86740000
H       -2.04000000      -2.19730000       0.94810000
H       -1.48110000      -2.73660000       3.59170000
H       -1.82510000       0.23450000       3.35510000
H       -0.70690000      -0.37580000       4.64750000
H        1.11140000       0.14620000       2.71050000
