19
Properties=species:S:1:pos:R:3 gdb_106604=T pbc="F F F"
C        0.08470000       1.55550000       0.09200000
C       -0.09880000       0.03950000      -0.05980000
C        0.71140000      -0.52930000      -1.18960000
C        0.89230000      -2.04360000      -1.52480000
C        2.04450000      -1.51810000      -2.45020000
C        1.23180000      -0.62730000      -3.40210000
O        0.32520000       0.01920000      -2.46990000
C        2.26020000      -0.49930000      -1.30510000
O        3.18410000      -0.05500000      -0.69370000
H        1.13070000       1.79920000       0.29880000
H       -0.21060000       2.07300000      -0.82400000
H       -0.52450000       1.93780000       0.91590000
H        0.20060000      -0.47180000       0.86250000
H       -1.15530000      -0.20180000      -0.22920000
H        1.24660000      -2.64340000      -0.68440000
H        0.04260000      -2.51190000      -2.02630000
H        2.83400000      -2.14400000      -2.85770000
H        1.84210000       0.12290000      -3.91800000
H        0.65630000      -1.19280000      -4.14400000
