14
Properties=species:S:1:pos:R:3 gdb_28759=T pbc="F F F"
O        0.07410000       1.34070000       0.26780000
C        0.06700000       0.01690000       0.03390000
N        0.08180000      -0.58740000      -1.11500000
C        0.06520000      -1.94680000      -0.81230000
C        0.04030000      -2.12170000       0.54170000
N        0.01660000      -3.24680000       1.36950000
C        0.01410000      -4.54030000       0.92120000
O        0.03200000      -4.87070000      -0.24240000
N        0.04150000      -0.84200000       1.09300000
H        0.09290000       1.76540000      -0.59930000
H        0.07200000      -2.70840000      -1.57040000
H        0.00010000      -3.10570000       2.36730000
H       -0.00660000      -5.25560000       1.76520000
H        0.02730000      -0.58050000       2.06390000
