17
Properties=species:S:1:pos:R:3 gdb_83030=T pbc="F F F"
C        0.19560000       1.71410000       0.01020000
C        0.08490000       0.20880000      -0.00850000
C        0.60850000      -0.65860000      -1.09610000
C        1.67190000      -0.11900000      -2.05530000
N        2.82470000       0.22110000      -1.20440000
C        2.50290000      -0.08190000      -0.00340000
C        3.44520000       0.20260000       1.11720000
O        3.17290000       0.05480000       2.28070000
N        1.24880000      -0.69840000       0.24910000
H        1.08150000       2.08540000      -0.50960000
H       -0.68590000       2.14710000      -0.47420000
H        0.22490000       2.08290000       1.04040000
H       -0.79870000      -0.16460000       0.50440000
H        0.05190000      -1.54580000      -1.38140000
H        1.97340000      -0.87650000      -2.78760000
H        1.36670000       0.76700000      -2.62500000
H        4.42290000       0.58960000       0.76730000
