14
Properties=species:S:1:pos:R:3 gdb_11234=T pbc="F F F"
N       -0.05730000       1.41320000      -0.40060000
C       -0.09060000       0.06640000      -0.19280000
N       -1.13750000      -0.66840000      -0.13900000
C       -0.64390000      -2.03340000       0.07340000
C        0.89750000      -1.92730000       0.00890000
O        1.13550000      -0.50470000      -0.08700000
C       -1.16290000      -2.53670000       1.41820000
O       -0.48460000      -3.06710000       2.26010000
H        0.77960000       1.88480000      -0.09720000
H       -0.92300000       1.89260000      -0.21290000
H       -1.04500000      -2.71130000      -0.69470000
H        1.37440000      -2.31040000       0.91350000
H        1.32890000      -2.40760000      -0.87260000
H       -2.24760000      -2.35190000       1.56840000
