19
Properties=species:S:1:pos:R:3 gdb_98619=T pbc="F F F"
C        0.01860000       1.53650000      -0.23410000
C       -0.18720000       0.02460000      -0.23030000
C       -1.62370000      -0.39350000       0.06750000
O       -2.48480000       0.42110000       0.32430000
C       -1.88390000      -1.86380000      -0.00790000
C       -3.12510000      -2.58780000       0.49630000
C       -4.39090000      -1.78420000       0.18710000
O       -4.00940000      -1.67570000      -1.21790000
C       -2.88090000      -2.49200000      -0.98070000
H        1.06420000       1.78470000      -0.43670000
H       -0.60470000       2.01210000      -0.99560000
H       -0.26170000       1.96950000       0.72930000
H        0.10140000      -0.42150000      -1.19220000
H        0.46080000      -0.46130000       0.51360000
H       -0.99190000      -2.48190000       0.07000000
H       -3.05290000      -3.42720000       1.17460000
H       -5.29780000      -2.39110000       0.27680000
H       -4.51030000      -0.81010000       0.65860000
H       -2.58830000      -3.20280000      -1.74560000
