23
Properties=species:S:1:pos:R:3 gdb_40000=T pbc="F F F"
C        0.10490000       1.53980000       0.00950000
C        1.36260000       0.70670000      -0.00740000
C        0.01930000       0.02690000       0.00200000
C       -0.45240000      -0.66080000       1.28860000
C       -1.82380000      -1.32670000       1.07630000
C       -2.66230000      -0.53840000       0.02500000
C       -1.84450000      -1.31500000      -1.05100000
C       -1.69010000      -2.44280000       0.00510000
C       -0.47750000      -0.64670000      -1.28270000
H       -0.14780000       2.06450000       0.92550000
H       -0.16560000       2.07450000      -0.89570000
H        1.94390000       0.67750000      -0.92380000
H        1.96170000       0.66750000       0.89710000
H        0.26720000      -1.42800000       1.60670000
H       -0.50060000       0.07490000       2.10010000
H       -2.29490000      -1.58530000       2.02800000
H       -3.70840000      -0.85620000       0.03350000
H       -2.61530000       0.55300000       0.03060000
H       -2.33410000      -1.56310000      -1.99610000
H       -0.76750000      -3.03360000      -0.00720000
H       -2.55050000      -3.11780000       0.00980000
H       -0.54140000       0.09790000      -2.08490000
H        0.23570000      -1.41020000      -1.62320000
