19
Properties=species:S:1:pos:R:3 gdb_85078=T pbc="F F F"
C        0.00610000       1.53370000      -0.12820000
C       -0.07240000       0.02900000       0.14090000
O        0.23370000      -0.64270000      -1.09680000
C        1.18910000      -1.58280000      -1.26790000
O        1.34780000      -2.04500000      -2.36660000
C        2.03380000      -2.03620000      -0.07830000
C        3.53000000      -1.94990000      -0.44610000
C        1.72030000      -1.32250000       1.20240000
C        0.77710000      -0.39530000       1.29520000
H        1.03690000       1.83010000      -0.34230000
H       -0.62080000       1.79430000      -0.98430000
H       -0.34330000       2.09290000       0.74510000
H       -1.12030000      -0.22820000       0.35410000
H        1.79710000      -3.10390000       0.04090000
H        3.84000000      -0.90830000      -0.57530000
H        4.14020000      -2.38940000       0.34860000
H        3.71500000      -2.48740000      -1.37720000
H        2.31170000      -1.59790000       2.07220000
H        0.56940000       0.10820000       2.23520000
