10
Properties=species:S:1:pos:R:3 gdb_1010=T pbc="F F F"
C        0.09690000      -1.15220000      -0.00490000
C        0.00460000       0.04670000       0.00280000
C       -0.09820000       1.45310000       0.01170000
N       -1.17370000       2.18830000       0.03030000
C       -0.70440000       3.48800000       0.03100000
C        0.65190000       3.47240000       0.01260000
O        1.05990000       2.17580000       0.00010000
H        0.17190000      -2.21170000      -0.01160000
H       -1.37290000       4.33380000       0.04460000
H        1.42450000       4.22180000       0.00620000
