21
Properties=species:S:1:pos:R:3 gdb_63969=T pbc="F F F"
C       -0.05450000       1.48920000      -0.27950000
C       -0.05010000      -0.02310000      -0.03380000
C       -1.44340000      -0.55610000       0.28150000
O        0.44890000      -0.71420000      -1.18100000
C        1.76600000      -1.15790000      -0.94240000
C        2.92180000      -0.17420000      -1.29680000
C        3.17060000       0.07410000       0.22260000
C        2.01370000      -0.91140000       0.56870000
O        0.81540000      -0.35000000       1.05570000
H        0.95090000       1.85170000      -0.50290000
H       -0.70490000       1.73010000      -1.12490000
H       -0.42170000       2.01260000       0.60770000
H       -2.12280000      -0.35660000      -0.55140000
H       -1.39250000      -1.63410000       0.44800000
H       -1.83830000      -0.07560000       1.18040000
H        1.86610000      -2.17310000      -1.33450000
H        3.75690000      -0.64480000      -1.82130000
H        2.59220000       0.69050000      -1.87600000
H        4.15020000      -0.25200000       0.58030000
H        2.99350000       1.09130000       0.57720000
H        2.28270000      -1.75890000       1.20400000
