23
Properties=species:S:1:pos:R:3 gdb_86176=T pbc="F F F"
C        0.36840000       1.39950000      -0.21940000
C        0.00300000      -0.08260000      -0.01050000
C       -1.51980000      -0.23170000       0.07650000
C        0.63060000      -0.97000000      -1.10860000
C        2.10590000      -1.18640000      -0.70920000
O        2.90310000      -0.26270000      -1.45010000
C        2.15470000      -0.92710000       0.82280000
C        0.69460000      -0.65810000       1.24800000
O        0.54910000       0.22390000       2.34860000
H        1.43870000       1.53420000      -0.38900000
H       -0.15280000       1.78870000      -1.10080000
H        0.07270000       1.99600000       0.64700000
H       -2.00690000       0.13710000      -0.83260000
H       -1.81050000      -1.28010000       0.21060000
H       -1.91310000       0.33840000       0.92430000
H        0.11800000      -1.93900000      -1.13740000
H        0.56450000      -0.53280000      -2.10830000
H        2.42490000      -2.21030000      -0.94870000
H        3.81280000      -0.34860000      -1.14730000
H        2.60280000      -1.75710000       1.37880000
H        2.75200000      -0.03130000       1.01950000
H        0.20890000      -1.62110000       1.47950000
H        0.90890000      -0.20610000       3.13000000
