19
Properties=species:S:1:pos:R:3 gdb_9520=T pbc="F F F"
C       -0.09230000       1.60790000       0.00630000
C        0.07620000       0.08490000       0.01430000
C        0.75500000      -0.48810000      -1.24190000
C        2.16740000       0.05100000      -1.47110000
C        0.60640000      -2.02580000      -1.39680000
O       -0.23610000      -1.83810000      -2.57710000
C       -0.12530000      -0.46770000      -2.48610000
N       -0.60600000       0.43800000      -3.20970000
H        0.87220000       2.12320000       0.04170000
H       -0.61720000       1.93360000      -0.89590000
H       -0.66900000       1.93140000       0.87800000
H        0.66130000      -0.22520000       0.89070000
H       -0.90950000      -0.38530000       0.11990000
H        2.79570000      -0.12420000      -0.59070000
H        2.64040000      -0.43390000      -2.33050000
H        2.14630000       1.12510000      -1.66980000
H        1.51600000      -2.57600000      -1.65190000
H        0.05710000      -2.54140000      -0.60470000
H       -1.16330000       0.05060000      -3.97340000
