14
Properties=species:S:1:pos:R:3 gdb_66975=T pbc="F F F"
O       -0.17850000       1.36690000       0.07720000
C        0.00020000       0.01170000       0.04960000
C       -0.18760000      -0.87340000      -1.20110000
O        0.53040000      -2.08820000      -0.99480000
C        0.04920000      -2.04110000       0.36910000
C       -1.09540000      -1.03740000      -0.02160000
C        0.83730000      -0.85170000       1.01540000
C        2.29040000      -0.84340000       0.92470000
N        3.44330000      -0.80840000       0.84860000
H        0.54840000       1.78810000      -0.39720000
H       -0.34430000      -0.49680000      -2.20280000
H       -0.02590000      -3.00870000       0.85710000
H       -2.16420000      -1.00570000       0.13090000
H        0.51080000      -0.68360000       2.04450000
