19
Properties=species:S:1:pos:R:3 gdb_105316=T pbc="F F F"
C        0.19230000       1.47770000       0.22610000
C       -0.17760000       0.02300000      -0.07740000
C        0.61030000      -0.55870000      -1.25250000
O        2.06650000      -0.52320000      -1.02500000
C        2.16540000      -1.91910000      -1.32420000
C        1.44110000      -2.73370000      -0.30390000
C        0.67380000      -2.08940000      -1.44250000
C        0.28720000       0.11630000      -2.50830000
C       -0.00790000       0.65440000      -3.54190000
H        1.25820000       1.56020000       0.45530000
H       -0.02200000       2.12580000      -0.62850000
H       -0.37410000       1.84800000       1.08540000
H        0.00790000      -0.60110000       0.80190000
H       -1.24490000      -0.06200000      -0.31400000
H        2.99340000      -2.24750000      -1.94040000
H        1.54340000      -3.81020000      -0.40450000
H        1.36180000      -2.37420000       0.71720000
H        0.07810000      -2.64230000      -2.15460000
H       -0.25600000       1.13670000      -4.45510000
