19
Properties=species:S:1:pos:R:3 gdb_64188=T pbc="F F F"
C       -0.25480000       1.45810000       0.19310000
C        0.03700000      -0.03150000       0.04560000
C       -1.17970000      -0.80130000      -0.44560000
O        1.17190000      -0.25000000      -0.83440000
C        1.99720000      -0.75550000       0.22630000
C        0.86220000      -0.63840000       1.26570000
O        1.05730000       0.16960000       2.39870000
C        0.35280000      -1.95650000       1.81400000
O        0.40250000      -3.00310000       1.22100000
H        0.65010000       2.03050000       0.42120000
H       -0.64620000       1.84380000      -0.75300000
H       -0.99520000       1.64210000       0.97710000
H       -1.48300000      -0.40940000      -1.42160000
H       -0.95460000      -1.86290000      -0.55630000
H       -2.02300000      -0.68770000       0.24460000
H        2.33780000      -1.77810000       0.03390000
H        2.85860000      -0.10860000       0.44130000
H        1.39790000       1.02510000       2.12080000
H       -0.07840000      -1.87110000       2.83440000
