17
Properties=species:S:1:pos:R:3 gdb_77104=T pbc="F F F"
N        0.29330000       1.20110000      -0.19330000
C        0.01730000      -0.20450000      -0.07540000
C       -0.02660000      -0.77230000       1.37940000
O       -1.30350000      -1.39750000       1.14230000
C       -1.41130000      -0.77280000      -0.14330000
C       -2.66510000      -0.09360000      -0.58780000
C       -2.18720000      -1.37900000      -1.25550000
C        1.01280000      -1.72530000       1.76120000
N        1.85020000      -2.46990000       2.04380000
H        0.47790000       1.46580000      -1.15370000
H       -0.48560000       1.76090000       0.13910000
H        0.71850000      -0.76020000      -0.70150000
H       -0.09200000       0.02040000       2.13490000
H       -3.52660000      -0.16140000       0.06740000
H       -2.58070000       0.83890000      -1.13840000
H       -1.78120000      -1.32570000      -2.26090000
H       -2.73680000      -2.28790000      -1.03550000
