20
Properties=species:S:1:pos:R:3 gdb_126197=T pbc="F F F"
C        0.06270000       1.55850000       0.19980000
C       -0.02440000       0.03380000       0.00850000
C        0.66210000      -0.45790000      -1.23120000
C        0.12810000      -0.75620000      -2.44980000
C       -1.25570000      -0.73300000      -2.99670000
O        1.09910000      -1.15210000      -3.29560000
N        2.32490000      -1.12320000      -2.63270000
C        2.06070000      -0.71210000      -1.41620000
C        3.16650000      -0.57700000      -0.41850000
H        1.10330000       1.89290000       0.25740000
H       -0.40620000       2.08440000      -0.63760000
H       -0.44100000       1.86590000       1.12170000
H        0.40940000      -0.46330000       0.88500000
H       -1.07840000      -0.26600000      -0.01340000
H       -1.35550000       0.01810000      -3.78790000
H       -1.52020000      -1.70290000      -3.43010000
H       -1.97420000      -0.49690000      -2.20900000
H        3.27240000       0.45870000      -0.07900000
H        2.97450000      -1.19210000       0.46750000
H        4.11110000      -0.89450000      -0.86420000
