20
Properties=species:S:1:pos:R:3 gdb_103905=T pbc="F F F"
C        0.22820000       1.23950000      -0.09940000
C        0.00500000      -0.24190000       0.22610000
C       -1.44460000      -0.66200000       0.09070000
O       -2.33500000      -0.04790000       0.98720000
C       -1.99540000      -1.05230000      -1.27170000
C       -1.80910000      -2.09020000      -0.20240000
O       -0.80440000      -3.04600000      -0.43640000
C       -0.36360000      -3.71260000       0.65550000
N        0.54240000      -4.58150000       0.53410000
H        1.28200000       1.50990000       0.01210000
H       -0.07060000       1.46990000      -1.12780000
H       -0.34570000       1.88520000       0.57430000
H        0.62000000      -0.86780000      -0.42740000
H        0.32820000      -0.44320000       1.25520000
H       -2.48920000       0.85330000       0.68340000
H       -3.01230000      -0.77030000      -1.51920000
H       -1.30130000      -1.08340000      -2.10450000
H       -2.69790000      -2.47690000       0.28990000
H       -0.87160000      -3.41390000       1.58190000
H        0.75150000      -4.99230000       1.44170000
