14
Properties=species:S:1:pos:R:3 gdb_20230=T pbc="F F F"
C       -0.01750000       1.63590000      -0.09930000
N        1.28610000       1.97060000       0.56880000
C        1.90080000       0.86550000       0.43440000
C        1.42700000      -0.24460000      -0.53920000
C        1.74000000      -1.21610000       0.62040000
C        0.59200000      -0.59530000       1.33690000
C        0.00730000       0.06610000       0.01770000
N        2.06890000      -0.09310000       1.52840000
H       -0.80340000       2.14090000       0.47040000
H       -0.12020000       1.93330000      -1.15400000
H        1.66660000      -0.31220000      -1.59560000
H        2.19650000      -2.19360000       0.68260000
H        0.07730000      -0.88030000       2.24500000
H       -0.84870000      -0.49240000      -0.37110000
