18
Properties=species:S:1:pos:R:3 gdb_110744=T pbc="F F F"
C        0.21260000       1.44170000       0.19590000
C       -0.19140000      -0.00930000      -0.09140000
C        0.56420000      -0.58480000      -1.27170000
C        1.89840000      -1.23440000      -1.19100000
O        2.01790000      -1.96190000       0.06300000
C        1.00290000      -2.83410000      -0.32850000
O        0.65920000      -3.83240000       0.21590000
C        0.70490000      -2.08310000      -1.61210000
N        0.30810000      -2.58850000      -2.87100000
H        1.27670000       1.51010000       0.44360000
H        0.02890000       2.08690000      -0.67020000
H       -0.35580000       1.84530000       1.03890000
H       -0.01070000      -0.62260000       0.79600000
H       -1.26700000      -0.06210000      -0.29880000
H        0.44020000      -0.03350000      -2.20420000
H        2.81530000      -0.99180000      -1.70850000
H        0.70590000      -3.50530000      -3.04700000
H       -0.70100000      -2.67220000      -2.93640000
