21
Properties=species:S:1:pos:R:3 gdb_106790=T pbc="F F F"
C        0.12300000       1.44640000      -0.36770000
C        0.00150000       0.03860000       0.22820000
C       -1.40920000      -0.50900000       0.20500000
C       -1.99490000      -1.05020000      -1.10220000
C       -1.72930000      -1.98530000       0.04900000
O       -0.67990000      -2.90220000      -0.05480000
C       -2.88730000      -2.32230000       0.99120000
C       -3.26260000      -0.97860000       1.57670000
C       -2.44630000      -0.00710000       1.16110000
H        1.15840000       1.79960000      -0.33340000
H       -0.20440000       1.46090000      -1.41260000
H       -0.49110000       2.16960000       0.17980000
H        0.65060000      -0.65600000      -0.31570000
H        0.36490000       0.04540000       1.26380000
H       -3.01550000      -0.79260000      -1.36800000
H       -1.30420000      -1.13250000      -1.93690000
H       -0.90630000      -3.54030000      -0.73960000
H       -3.72750000      -2.80560000       0.47570000
H       -2.54400000      -3.02330000       1.76410000
H       -4.10410000      -0.84850000       2.24750000
H       -2.51160000       1.03510000       1.45460000
