18
Properties=species:S:1:pos:R:3 gdb_87697=T pbc="F F F"
C       -0.06400000       1.53220000      -0.10010000
C       -0.01980000       0.03450000       0.04390000
O        1.27020000      -0.59620000      -0.07530000
C        0.62650000      -0.63420000       1.17480000
C        1.20370000      -0.09800000       2.50220000
N        0.73420000      -1.35370000       3.09940000
C        0.73330000      -1.82960000       4.45600000
C        0.22910000      -1.90460000       1.94130000
O       -0.31290000      -2.95210000       1.70670000
H        0.76270000       2.00340000       0.43780000
H        0.00660000       1.81680000      -1.15490000
H       -1.00870000       1.92500000       0.29070000
H       -0.81450000      -0.51890000      -0.45790000
H        2.29230000       0.02460000       2.50510000
H        0.72500000       0.80030000       2.90980000
H        0.17370000      -1.15790000       5.11910000
H        0.25330000      -2.81130000       4.46100000
H        1.75250000      -1.93240000       4.84780000
