19
Properties=species:S:1:pos:R:3 gdb_41677=T pbc="F F F"
C        0.02510000       1.35540000       0.09460000
C        1.45610000       1.89470000      -0.00570000
C        2.23380000       1.09100000      -1.05340000
C        1.33230000       0.44650000      -2.17280000
C        2.32790000      -0.45160000      -2.89160000
C        3.03210000      -1.00880000      -1.89690000
C        2.41190000      -0.41400000      -0.64630000
C        0.87660000      -0.54700000      -1.01910000
O       -0.02710000      -0.05880000      -0.06900000
H       -0.43390000       1.57390000       1.06260000
H       -0.59630000       1.82660000      -0.68130000
H        1.41990000       2.95680000      -0.27400000
H        1.97540000       1.82690000       0.95850000
H        3.13810000       1.60240000      -1.39560000
H        0.62160000       1.02370000      -2.76460000
H        2.38870000      -0.61040000      -3.95900000
H        3.82200000      -1.74540000      -1.93670000
H        2.78280000      -0.70120000       0.33800000
H        0.53320000      -1.53890000      -1.32220000
