16
Properties=species:S:1:pos:R:3 gdb_34640=T pbc="F F F"
N        0.09580000      -1.15060000      -0.24580000
C        0.02530000      -0.00170000      -0.11600000
C       -0.02380000       1.41840000       0.03070000
C       -1.19330000       2.07720000       0.04840000
C       -1.29060000       3.57080000       0.17150000
C       -0.08300000       4.22200000       0.87480000
C        1.24620000       3.56550000       0.52700000
O        1.70120000       2.55400000       1.43560000
C        1.27640000       2.15210000       0.12720000
H       -2.11840000       1.51820000      -0.05740000
H       -1.41070000       3.98350000      -0.84180000
H       -2.21370000       3.83330000       0.69870000
H       -0.04790000       5.28780000       0.63100000
H       -0.20830000       4.14560000       1.95950000
H        2.03970000       4.21810000       0.16590000
H        2.07640000       1.77860000      -0.50970000
