21
Properties=species:S:1:pos:R:3 gdb_42047=T pbc="F F F"
C        0.16410000       1.54400000       0.23050000
O        1.41280000       1.48030000      -0.49040000
C        1.34250000       0.03680000      -0.59490000
C        2.47920000      -0.67490000       0.12230000
C        2.25030000      -2.19390000       0.22080000
C        1.28980000      -2.61040000       1.34600000
C       -0.12770000      -2.04140000       1.24970000
O       -0.16010000      -0.62070000       1.33760000
C       -0.04710000       0.02930000       0.10150000
H        0.29350000       1.87470000       1.26780000
H       -0.57020000       2.18390000      -0.27140000
H        1.31030000      -0.27120000      -1.64980000
H        3.40700000      -0.46490000      -0.42200000
H        2.59340000      -0.24620000       1.12380000
H        1.88130000      -2.57420000      -0.74280000
H        3.21170000      -2.69150000       0.38950000
H        1.21120000      -3.70520000       1.37420000
H        1.71190000      -2.30200000       2.31070000
H       -0.61740000      -2.37260000       0.31980000
H       -0.72860000      -2.41290000       2.08700000
H       -0.87000000      -0.26680000      -0.56410000
