18
Properties=species:S:1:pos:R:3 gdb_17663=T pbc="F F F"
O       -0.34900000       1.60810000       0.23790000
C        0.01650000       0.25470000       0.06300000
C        0.99770000      -0.11440000      -1.09050000
C        1.72800000      -1.07790000      -0.11890000
C        1.03450000      -0.36260000       1.07130000
C       -1.30090000      -0.49390000       0.04220000
C       -2.08190000      -0.70010000      -1.17910000
O       -1.33150000      -1.77100000      -0.59270000
H        0.45270000       2.11230000       0.40960000
H        0.57830000      -0.54000000      -2.00360000
H        1.60820000       0.75560000      -1.35260000
H        1.37720000      -2.10410000      -0.23670000
H        2.81930000      -1.06880000      -0.13380000
H        1.66680000       0.41820000       1.50900000
H        0.62940000      -0.97460000       1.88180000
H       -1.84020000      -0.44720000       0.98980000
H       -3.16360000      -0.80060000      -1.11320000
H       -1.70410000      -0.33220000      -2.13090000
