20
Properties=species:S:1:pos:R:3 gdb_78395=T pbc="F F F"
C       -0.10170000       1.52270000       0.01320000
C        0.11590000       0.03310000      -0.10540000
C        0.80170000      -0.66350000      -1.22240000
C        1.96850000       0.10270000      -1.77070000
C        2.48150000       0.18430000      -0.32470000
N        1.39040000      -0.65150000       0.21080000
C        3.27170000      -0.55370000      -1.37280000
C        3.52370000      -2.04180000      -1.35180000
O        4.34040000       0.20660000      -1.88410000
H        0.69130000       2.09950000      -0.46520000
H       -1.05160000       1.79770000      -0.45750000
H       -0.15540000       1.81820000       1.06680000
H       -0.70370000      -0.55260000       0.30970000
H        0.39960000      -1.57970000      -1.64580000
H        1.95420000       0.84610000      -2.55940000
H        2.89580000       1.01970000       0.22850000
H        2.68940000      -2.57970000      -0.89900000
H        3.69110000      -2.41720000      -2.36630000
H        4.41910000      -2.26410000      -0.75740000
H        5.10440000       0.05550000      -1.31650000
