18
Properties=species:S:1:pos:R:3 gdb_77182=T pbc="F F F"
O       -0.03800000       1.38780000       0.19600000
C        0.04120000      -0.00640000       0.05450000
C       -1.33510000      -0.74140000      -0.02630000
N       -0.88850000      -1.24520000      -1.34380000
C        0.26610000      -0.51170000      -1.39370000
O        1.08620000      -0.29490000      -2.24810000
C       -1.65930000      -1.79060000       0.99660000
C       -2.47300000      -1.41890000       2.21140000
C       -3.07750000      -2.29180000       1.14310000
H        0.66910000       1.76740000      -0.33920000
H        0.72110000      -0.46220000       0.78780000
H       -2.14820000      -0.01060000      -0.11080000
H       -1.38190000      -1.75220000      -2.06520000
H       -0.87150000      -2.52480000       1.14320000
H       -2.20640000      -1.87040000       3.16000000
H       -2.82450000      -0.39560000       2.29060000
H       -3.83860000      -1.85440000       0.50470000
H       -3.22840000      -3.34360000       1.35760000
