17
Properties=species:S:1:pos:R:3 gdb_52750=T pbc="F F F"
C       -0.05210000       1.50750000      -0.00230000
C        0.01260000       0.05350000      -0.02390000
C        0.07660000      -1.14760000      -0.04700000
C        0.12330000      -2.61240000      -0.05900000
C       -1.29560000      -3.20510000       0.20300000
C       -1.29610000      -4.71310000       0.34710000
O       -1.89810000      -5.30470000       1.20620000
C        0.69610000      -3.12200000      -1.31150000
C        1.15080000      -3.55140000      -2.33700000
H        0.58620000       1.92150000       0.78570000
H        0.27980000       1.93100000      -0.95650000
H       -1.07420000       1.85690000       0.17920000
H        0.77360000      -2.94060000       0.76570000
H       -1.72490000      -2.76260000       1.10430000
H       -1.93620000      -2.94180000      -0.64810000
H       -0.69800000      -5.25590000      -0.41690000
H        1.56260000      -3.92230000      -3.24320000
