19
Properties=species:S:1:pos:R:3 gdb_121658=T pbc="F F F"
C        1.45110000       0.64570000       0.04700000
O        0.15710000       0.09290000      -0.00740000
C       -0.14990000      -0.55560000      -1.22530000
C        0.45820000      -1.95820000      -1.32000000
C        0.01430000      -2.69520000      -2.56760000
O       -0.79360000      -2.24530000      -3.35050000
C        0.59640000      -4.06220000      -2.81740000
C        2.05780000      -4.27680000      -2.87040000
O        1.29800000      -4.70100000      -1.74940000
H        2.24350000      -0.11810000       0.02480000
H        1.62730000       1.34750000      -0.78360000
H        1.52890000       1.19130000       0.99070000
H       -1.23920000      -0.62980000      -1.26960000
H        0.16830000       0.05360000      -2.08470000
H        1.55420000      -1.92840000      -1.28770000
H        0.16670000      -2.55860000      -0.44890000
H       -0.03980000      -4.70560000      -3.42300000
H        2.44370000      -5.06840000      -3.51030000
H        2.73600000      -3.44330000      -2.69540000
