20
Properties=species:S:1:pos:R:3 gdb_91045=T pbc="F F F"
C       -0.20390000       1.57120000      -0.06430000
C        0.06750000       0.08400000       0.02410000
O        1.13500000      -0.39000000      -0.85430000
C        1.74850000      -1.13160000       0.20910000
C        2.91360000      -0.44680000       0.97040000
N        2.63750000       1.00400000       0.99620000
C        1.93920000       0.12210000       1.95520000
C        0.74610000      -0.58940000       1.25440000
C       -0.07940000      -1.47680000       2.15770000
H        0.69600000       2.14590000       0.14800000
H       -0.56160000       1.82380000      -1.06820000
H       -0.99180000       1.84470000       0.64740000
H       -0.85400000      -0.46780000      -0.22000000
H        1.87700000      -2.19680000      -0.00560000
H        3.92220000      -0.81770000       1.10850000
H        3.40810000       1.43860000       1.50360000
H        2.03880000       0.27730000       3.02370000
H       -0.72990000      -0.88090000       2.80980000
H       -0.71510000      -2.15240000       1.57640000
H        0.55970000      -2.08930000       2.80400000
