20
Properties=species:S:1:pos:R:3 gdb_51886=T pbc="F F F"
O       -0.19580000       0.04680000      -0.42570000
C       -0.06850000       1.19530000      -0.05970000
N        1.11350000       1.80210000       0.23860000
C        2.40470000       1.13690000       0.15680000
C        3.41150000       1.94980000      -0.66810000
C        4.79490000       1.28600000      -0.62110000
C        5.20460000       1.01830000       0.82820000
O        4.23470000       0.23790000       1.50860000
C        2.97260000       0.87060000       1.56240000
H       -0.92510000       1.88730000       0.06780000
H        1.08720000       2.76620000       0.53390000
H        2.21540000       0.17450000      -0.32600000
H        3.05550000       2.05650000      -1.69760000
H        3.48160000       2.96430000      -0.24700000
H        4.76720000       0.33280000      -1.16210000
H        5.54450000       1.91800000      -1.11030000
H        6.13940000       0.45330000       0.88060000
H        5.35710000       1.97520000       1.35870000
H        3.04260000       1.82700000       2.11400000
H        2.30810000       0.20550000       2.12030000
