19
Properties=species:S:1:pos:R:3 gdb_68050=T pbc="F F F"
O       -0.09070000       1.31840000       0.00950000
C        0.02630000      -0.05470000      -0.00140000
C        0.66570000      -0.97430000      -1.09590000
C        0.03630000      -1.91890000      -0.01690000
O       -0.06590000      -3.29310000      -0.02900000
C        0.65450000      -0.99260000       1.08420000
C       -1.18370000      -0.99330000      -0.01550000
C       -2.45920000      -1.00650000       0.74360000
C       -2.45130000      -0.99360000      -0.78790000
H        0.79120000       1.70410000       0.01680000
H        0.18860000      -0.96870000      -2.07790000
H        1.75940000      -0.96790000      -1.15940000
H        0.82000000      -3.66950000      -0.02660000
H        1.74740000      -0.98740000       1.15900000
H        0.16720000      -1.00340000       2.06110000
H       -2.76220000      -1.92530000       1.23610000
H       -2.77210000      -0.09940000       1.25140000
H       -2.75900000      -0.07810000      -1.28360000
H       -2.74910000      -1.90400000      -1.29890000
