15
Properties=species:S:1:pos:R:3 gdb_83150=T pbc="F F F"
O       -0.03910000       1.39820000       0.11680000
C       -0.00730000       0.01020000       0.00140000
C       -1.31830000      -0.72120000       0.03160000
C       -2.52970000       0.13100000      -0.32030000
O       -2.33970000       0.61020000      -1.67150000
C       -1.25300000       0.05230000      -2.23640000
O       -0.97100000       0.14390000      -3.40170000
C       -0.47630000      -0.73910000      -1.22890000
O        0.22710000      -1.82010000      -1.72420000
H        0.66150000       1.77160000      -0.42890000
H        0.81560000      -0.49380000       0.50920000
H       -1.44470000      -1.58470000       0.67230000
H       -3.45530000      -0.45090000      -0.30050000
H       -2.63190000       1.00660000       0.32390000
H        0.34310000      -1.64170000      -2.66930000
