19
Properties=species:S:1:pos:R:3 gdb_77808=T pbc="F F F"
C       -0.02650000       1.50370000      -0.03390000
C        0.00110000      -0.00580000       0.00560000
C       -1.27900000      -0.75320000      -0.40320000
C       -1.27160000      -2.10580000       0.33350000
C       -0.24370000      -1.96200000       1.46100000
O       -0.18120000      -2.65180000       2.44990000
C        0.63770000      -0.79150000       1.16430000
C        1.27200000      -0.73570000      -0.22990000
O        1.28220000      -1.83200000      -1.09400000
H        0.92850000       1.93320000       0.28410000
H       -0.23050000       1.86150000      -1.05000000
H       -0.80860000       1.90000000       0.62290000
H       -2.13970000      -0.15390000      -0.08810000
H       -1.34140000      -0.86500000      -1.48950000
H       -2.24110000      -2.38720000       0.75080000
H       -0.94030000      -2.91990000      -0.31790000
H        1.17050000      -0.33350000       1.98940000
H        2.17440000      -0.12490000      -0.27130000
H        1.95160000      -2.45350000      -0.78740000
