19
Properties=species:S:1:pos:R:3 gdb_114021=T pbc="F F F"
O       -0.09940000       1.28950000      -0.78810000
C        0.00590000       0.14920000       0.04830000
C       -1.30110000      -0.60840000       0.13180000
C       -1.64670000      -1.65880000      -0.90160000
C       -1.40690000      -2.06270000       0.53320000
C       -0.21020000      -2.89460000       0.91890000
O       -0.52870000      -4.29390000       0.82890000
C       -0.11540000      -4.96460000      -0.26140000
O       -0.38800000      -6.10940000      -0.46110000
H       -0.42220000       0.98900000      -1.64450000
H        0.81890000      -0.51380000      -0.28780000
H        0.29060000       0.53530000       1.03310000
H       -2.12370000       0.01930000       0.46360000
H       -2.65570000      -1.70610000      -1.29450000
H       -0.87640000      -1.91590000      -1.62460000
H       -2.29120000      -2.32010000       1.10920000
H        0.66010000      -2.67310000       0.29020000
H        0.07430000      -2.72730000       1.96150000
H        0.51080000      -4.34500000      -0.93470000
