17
Properties=species:S:1:pos:R:3 gdb_67614=T pbc="F F F"
O       -0.05340000       1.34330000       0.10910000
C        0.06440000      -0.03470000       0.05900000
C       -0.34500000      -0.90490000      -1.11210000
O        0.49480000      -2.02920000      -1.19240000
C        0.77390000      -2.20920000       0.17300000
C       -0.53960000      -2.08060000       1.03270000
C        0.32620000      -1.34910000       2.09700000
C        1.11020000      -0.83940000       0.85870000
C       -1.14170000      -0.95010000       0.18800000
H        0.63450000       1.72480000      -0.44780000
H       -0.72770000      -0.53720000      -2.05490000
H        1.43290000      -3.05800000       0.33850000
H       -1.17190000      -2.93510000       1.26950000
H       -0.16350000      -0.60250000       2.72640000
H        0.90870000      -2.03960000       2.71410000
H        2.12040000      -0.43340000       0.91400000
H       -2.15850000      -0.59260000       0.26870000
