14
Properties=species:S:1:pos:R:3 gdb_67554=T pbc="F F F"
O       -0.04980000       1.44940000       0.03340000
C        0.03580000       0.07600000      -0.03830000
C        1.21300000      -0.64870000       0.69740000
O        0.97470000      -2.05490000       0.64970000
C        1.55220000      -1.43530000      -0.49960000
C        0.38810000      -0.77620000      -1.31860000
N       -0.93380000      -1.37710000      -1.20680000
C       -1.30320000      -0.72520000      -0.03500000
O       -2.27260000      -0.79520000       0.66210000
H        0.83700000       1.82730000       0.04360000
H        1.81520000      -0.26120000       1.51320000
H        2.50060000      -1.82090000      -0.85590000
H        0.64540000      -0.32040000      -2.27430000
H       -1.24600000      -2.28870000      -1.51190000
