16
Properties=species:S:1:pos:R:3 gdb_7910=T pbc="F F F"
C        0.06180000       1.48770000       0.02310000
C        0.00630000      -0.00120000      -0.05580000
C       -0.10350000      -0.76750000      -1.15030000
C       -0.08700000      -2.20380000      -0.79910000
O       -0.24680000      -3.14180000      -1.54510000
C        0.17920000      -2.28560000       0.71030000
C        0.06870000      -0.84320000       1.21700000
O        1.18950000      -0.52660000       2.03740000
H        0.99320000       1.80430000       0.50760000
H        0.01100000       1.95400000      -0.96300000
H       -0.76300000       1.87910000       0.63320000
H       -0.19450000      -0.42340000      -2.17380000
H       -0.50110000      -2.98960000       1.19380000
H        1.20070000      -2.64330000       0.87460000
H       -0.86290000      -0.69900000       1.78740000
H        0.98880000       0.27190000       2.53490000
