17
Properties=species:S:1:pos:R:3 gdb_57820=T pbc="F F F"
C        0.10990000       1.19750000      -0.30700000
C       -0.13300000      -0.26420000       0.09470000
O        0.48370000      -0.58250000       1.33800000
C       -1.56450000      -0.59060000       0.09530000
C       -2.74350000      -0.83630000       0.12160000
C       -4.16230000      -1.16240000       0.14600000
O       -4.46010000      -2.40760000      -0.51330000
C       -4.27140000      -3.53220000       0.20970000
O       -4.45570000      -4.62070000      -0.24130000
H        1.18360000       1.40060000      -0.29760000
H       -0.28490000       1.39810000      -1.30690000
H       -0.38360000       1.87640000       0.39630000
H        0.36610000      -0.91660000      -0.63180000
H        0.02210000      -0.09090000       2.02670000
H       -4.53280000      -1.18970000       1.17940000
H       -4.74780000      -0.41280000      -0.39260000
H       -3.94520000      -3.32950000       1.24830000
