17
Properties=species:S:1:pos:R:3 gdb_27685=T pbc="F F F"
C        0.00460000       1.49680000       0.09910000
C        0.01250000       0.01000000      -0.03340000
C        0.00920000      -0.79600000      -1.15740000
C        0.02020000      -2.15230000      -0.74540000
C        0.02150000      -3.37130000      -1.61360000
C        0.03000000      -2.13600000       0.64350000
N        0.02560000      -0.81300000       1.05500000
C        0.04290000      -3.20190000       1.56420000
N        0.05350000      -4.07790000       2.32590000
H        0.89040000       1.86460000       0.63070000
H       -0.00540000       1.95840000      -0.89020000
H       -0.87750000       1.85410000       0.64370000
H        0.00020000      -0.43960000      -2.17680000
H        0.89800000      -3.39130000      -2.27080000
H        0.03200000      -4.28390000      -1.01240000
H       -0.86450000      -3.40270000      -2.25750000
H        0.02850000      -0.51660000       2.01630000
