14
Properties=species:S:1:pos:R:3 gdb_39=T pbc="F F F"
C       -0.03010000       1.55800000       0.02980000
C        0.00710000       0.02830000      -0.00710000
C        0.71320000      -0.52990000      -1.24770000
C        0.75040000      -2.05960000      -1.28460000
H        0.98200000       1.97850000       0.02800000
H       -0.55580000       1.96210000      -0.84270000
H       -0.54080000       1.92690000       0.92490000
H        0.50930000      -0.34910000       0.89360000
H       -1.01730000      -0.36540000       0.03210000
H        0.21100000      -0.15250000      -2.14840000
H        1.73760000      -0.13610000      -1.28690000
H        1.27620000      -2.46370000      -0.41210000
H       -0.26170000      -2.48000000      -1.28270000
H        1.26110000      -2.42850000      -2.17970000
