18
Properties=species:S:1:pos:R:3 gdb_85323=T pbc="F F F"
C        0.35260000       1.46630000      -0.26480000
C       -0.03880000       0.03150000       0.05470000
O        0.30110000      -0.79970000      -1.08290000
C        1.15470000      -1.81040000      -0.78000000
O        1.52190000      -2.61270000      -1.58910000
C        1.53190000      -1.70890000       0.69110000
N        2.70650000      -0.82550000       0.90910000
C        1.93210000       0.00710000       1.85880000
C        0.62900000      -0.61730000       1.30000000
H        1.43040000       1.54530000      -0.42930000
H       -0.15870000       1.79680000      -1.17230000
H        0.06680000       2.13430000       0.55400000
H       -1.12760000      -0.03430000       0.15180000
H        1.56470000      -2.69070000       1.17160000
H        3.53530000      -1.27950000       1.27350000
H        2.07270000      -0.26110000       2.91440000
H        2.08400000       1.08500000       1.74960000
H       -0.11340000      -0.91410000       2.03910000
