21
Properties=species:S:1:pos:R:3 gdb_99051=T pbc="F F F"
C        0.16380000       1.52770000       0.12840000
C       -0.05480000       0.04210000      -0.14660000
C       -1.49550000      -0.41100000       0.04770000
O       -2.39110000       0.37360000       0.26850000
C       -1.74000000      -1.91470000      -0.03170000
C       -3.23110000      -2.29740000      -0.13010000
C       -3.82890000      -1.92980000      -1.50350000
C       -3.41180000      -3.71850000       0.15970000
C       -3.54560000      -4.89300000       0.38060000
H        1.20510000       1.80570000      -0.05560000
H       -0.47860000       2.13880000      -0.51000000
H       -0.08090000       1.77400000       1.16510000
H        0.22560000      -0.21260000      -1.17890000
H        0.59150000      -0.58460000       0.48260000
H       -1.17240000      -2.33930000      -0.86900000
H       -1.29940000      -2.35610000       0.87230000
H       -3.76020000      -1.71160000       0.63130000
H       -3.73300000      -0.85580000      -1.67720000
H       -3.31580000      -2.47000000      -2.30560000
H       -4.88850000      -2.19410000      -1.54450000
H       -3.67760000      -5.92620000       0.58590000
