19
Properties=species:S:1:pos:R:3 gdb_89367=T pbc="F F F"
C        0.11910000       1.45970000       0.09590000
C        0.00670000      -0.04170000      -0.01450000
C        0.66170000      -0.72380000      -1.26220000
C        0.98150000      -2.14560000      -0.70520000
O        2.37060000      -2.39270000      -0.59580000
C        0.32840000      -2.04480000       0.71100000
O        0.71830000      -0.70450000       1.05680000
C       -1.17830000      -1.91750000       0.55620000
C       -1.38210000      -0.67910000       0.11290000
H        1.16820000       1.76870000       0.07050000
H       -0.40010000       1.94350000      -0.73720000
H       -0.32370000       1.81280000       1.03160000
H        0.00580000      -0.72670000      -2.13500000
H        1.59850000      -0.23100000      -1.53620000
H        0.57450000      -2.95690000      -1.31140000
H        2.71100000      -1.72490000       0.01290000
H        0.71630000      -2.76510000       1.43030000
H       -1.89310000      -2.71730000       0.69360000
H       -2.30530000      -0.21200000      -0.20370000
