19
Properties=species:S:1:pos:R:3 gdb_106151=T pbc="F F F"
C        0.12560000       1.24340000       0.30880000
O       -0.02160000      -0.06890000      -0.21540000
C       -1.28740000      -0.55490000      -0.13710000
C       -2.20560000      -0.93440000       1.01690000
C       -3.36810000      -0.13090000       0.44580000
C       -2.64870000      -0.24630000      -0.92740000
C       -2.71930000      -1.76490000      -1.27400000
C       -1.77760000      -1.96240000      -0.09080000
O       -1.02310000      -3.07140000       0.22100000
H        1.18170000       1.50480000       0.21660000
H       -0.47500000       1.97030000      -0.25520000
H       -0.17080000       1.28260000       1.36520000
H       -1.93520000      -1.13920000       2.04560000
H       -4.37740000      -0.55490000       0.50530000
H       -3.38280000       0.89600000       0.82320000
H       -2.78930000       0.49870000      -1.70720000
H       -3.71110000      -2.23270000      -1.25390000
H       -2.21530000      -1.99400000      -2.21690000
H       -1.57350000      -3.68370000       0.72160000
