21
Properties=species:S:1:pos:R:3 gdb_57866=T pbc="F F F"
C        0.06180000       1.38680000      -0.33000000
C        0.04340000      -0.05970000       0.17910000
C        0.64740000      -0.15970000       1.59550000
C       -1.39610000      -0.57320000       0.23190000
O       -2.31450000       0.16270000       0.53870000
N       -1.61020000      -1.92810000      -0.04350000
C       -0.54720000      -2.85450000      -0.43250000
C       -2.91700000      -2.41180000       0.03740000
N       -3.20010000      -3.62650000      -0.21110000
H        1.08370000       1.77760000      -0.31710000
H       -0.31620000       1.45340000      -1.35450000
H       -0.56780000       2.01930000       0.29910000
H        0.63870000      -0.67910000      -0.49690000
H        0.06450000       0.44700000       2.29520000
H        0.65730000      -1.18840000       1.96940000
H        1.67710000       0.20970000       1.59430000
H        0.27260000      -2.84150000       0.28890000
H       -0.98690000      -3.85070000      -0.45840000
H       -0.15510000      -2.61860000      -1.42670000
H       -3.61110000      -1.62570000       0.33120000
H       -4.19940000      -3.78050000      -0.09300000
