15
Properties=species:S:1:pos:R:3 gdb_27198=T pbc="F F F"
C       -0.02110000       1.51990000       0.07640000
C        0.00820000       0.03430000      -0.04760000
C       -0.00330000      -0.81360000      -1.13850000
N       -0.04240000      -0.83440000      -2.53630000
C       -0.02210000      -2.09230000      -2.81160000
O        0.02790000      -2.97820000      -1.75160000
C        0.04000000      -2.14180000      -0.66810000
C        0.07910000      -2.15720000       0.69930000
N        0.05820000      -0.80970000       1.04500000
H        0.87390000       1.91320000       0.57450000
H       -0.06820000       1.96340000      -0.92030000
H       -0.89390000       1.87250000       0.64010000
H       -0.03950000      -2.55270000      -3.78800000
H        0.11750000      -2.93240000       1.44350000
H        0.07770000      -0.48450000       1.99630000
