22
Properties=species:S:1:pos:R:3 gdb_62944=T pbc="F F F"
C        0.08610000       1.57710000      -0.24500000
C        0.11260000       0.06310000      -0.06770000
O       -1.19570000      -0.45800000      -0.25380000
C        1.16930000      -0.73610000      -0.84380000
C        2.54390000      -0.43660000      -0.40500000
N        1.74210000      -1.37000000       0.40580000
C        0.74510000      -0.56630000       1.23630000
C        1.36960000       0.36980000       2.26660000
C       -0.16760000      -1.57100000       1.93390000
H        1.06680000       2.03860000      -0.11200000
H       -0.25660000       1.82970000      -1.25690000
H       -0.60920000       2.02880000       0.46940000
H       -1.52480000      -0.12560000      -1.09570000
H        0.94200000      -1.32920000      -1.72550000
H        3.35550000      -0.93620000      -0.92650000
H        2.80610000       0.54490000      -0.02200000
H        2.02330000       1.12920000       1.83220000
H        0.58790000       0.89120000       2.82870000
H        1.96230000      -0.21360000       2.97880000
H        0.40800000      -2.10460000       2.69670000
H       -1.00960000      -1.06700000       2.41690000
H       -0.56460000      -2.29850000       1.22660000
