21
Properties=species:S:1:pos:R:3 gdb_41735=T pbc="F F F"
C        0.27160000       1.29830000      -0.50280000
C        1.42220000       1.99230000       0.27470000
C        2.11240000       0.87970000       1.05190000
C        2.49520000      -0.37250000       0.27690000
C        3.30120000      -1.42140000       1.03100000
C        2.48520000      -1.63340000       2.32990000
O        1.13680000      -1.26930000       2.03400000
C        1.17990000      -0.31920000       1.01000000
C       -0.11400000       0.06020000       0.33830000
H       -0.57480000       1.96770000      -0.67470000
H        0.62450000       0.97780000      -1.48830000
H        2.09310000       2.54160000      -0.39560000
H        1.01500000       2.71980000       0.98680000
H        2.68210000       1.14140000       1.93820000
H        2.57180000      -0.34520000      -0.80570000
H        3.33830000      -2.34180000       0.43870000
H        4.33160000      -1.12440000       1.25010000
H        2.48610000      -2.66730000       2.68510000
H        2.87390000      -0.99700000       3.13710000
H       -0.85070000       0.31630000       1.10940000
H       -0.53970000      -0.74640000      -0.26740000
