18
Properties=species:S:1:pos:R:3 gdb_39675=T pbc="F F F"
C       -0.00340000       1.41090000      -0.23560000
O        1.26340000       1.59380000       0.42280000
C        1.45150000       0.16650000       0.55410000
C        0.03770000      -0.11700000       0.00430000
C       -0.95760000      -0.65790000       1.02430000
C       -2.41680000      -0.76890000       0.49690000
O       -2.73220000      -2.17810000       0.61660000
C       -1.62110000      -2.74960000       1.13630000
N       -0.60670000      -2.04220000       1.40820000
H       -0.81170000       1.96140000       0.26460000
H        0.03140000       1.71690000      -1.28940000
H        2.27600000      -0.19630000      -0.07190000
H        1.62950000      -0.13670000       1.59150000
H        0.00900000      -0.73050000      -0.89990000
H       -0.91040000      -0.02720000       1.92070000
H       -3.14260000      -0.20710000       1.08960000
H       -2.52070000      -0.48630000      -0.55560000
H       -1.69990000      -3.82120000       1.28370000
