21
Properties=species:S:1:pos:R:3 gdb_121814=T pbc="F F F"
C       -0.01600000       1.36630000       0.15050000
O        0.05390000      -0.03660000       0.06410000
C        0.60150000      -0.48250000      -1.15840000
C        0.61000000      -2.00830000      -1.11320000
C        1.31930000      -2.68340000      -2.31160000
C        0.66940000      -2.32510000      -3.66100000
N        2.72600000      -2.25690000      -2.34280000
C        1.21250000      -4.15460000      -2.12190000
N        1.17530000      -5.30110000      -1.97380000
H        0.97920000       1.83160000       0.06950000
H       -0.65740000       1.79380000      -0.63690000
H       -0.44330000       1.61320000       1.12530000
H       -0.00600000      -0.11390000      -2.00130000
H        1.62230000      -0.09700000      -1.29730000
H        1.10860000      -2.31760000      -0.18770000
H       -0.41820000      -2.37760000      -1.05090000
H        0.80520000      -1.26100000      -3.86360000
H        1.13520000      -2.89190000      -4.47250000
H       -0.39780000      -2.55980000      -3.65410000
H        3.19760000      -2.55300000      -1.49230000
H        3.20940000      -2.71020000      -3.11320000
