20
Properties=species:S:1:pos:R:3 gdb_93211=T pbc="F F F"
C       -0.04550000       1.57630000      -0.00140000
C       -0.02490000       0.04290000      -0.00150000
C        0.64890000      -0.50350000      -1.26440000
N        0.84370000      -1.94080000      -1.15030000
C        1.36780000      -2.52340000      -0.02230000
O        1.80140000      -3.66440000      -0.02300000
C        1.32470000      -1.68510000       1.21740000
C        1.99710000      -2.27590000       2.42260000
C        0.66530000      -0.52030000       1.21660000
H        0.97120000       1.98390000      -0.00760000
H       -0.57100000       1.96320000      -0.88040000
H       -0.55460000       1.95920000       0.88830000
H       -1.06750000      -0.31310000       0.00820000
H        0.02950000      -0.30310000      -2.14400000
H        1.60850000       0.01980000      -1.41280000
H        1.00530000      -2.47400000      -1.99250000
H        1.58550000      -3.26480000       2.64600000
H        3.06630000      -2.42680000       2.23950000
H        1.87770000      -1.63090000       3.29680000
H        0.58510000       0.05290000       2.13920000
