11
Properties=species:S:1:pos:R:3 gdb_10000=T pbc="F F F"
O        0.00950000      -0.06420000      -0.09100000
C       -0.01970000       1.12020000      -0.02210000
O        1.11090000       1.87550000      -0.15350000
C        0.98300000       3.28850000      -0.04750000
C        2.11980000       3.78240000       0.88340000
O        1.99410000       4.72500000       1.60690000
C        1.10830000       3.91820000      -1.36750000
N        1.23010000       4.42760000      -2.39700000
H       -0.92320000       1.73190000       0.15660000
H        0.02780000       3.58160000       0.40480000
H        3.03850000       3.16820000       0.81180000
