22
Properties=species:S:1:pos:R:3 gdb_123105=T pbc="F F F"
C       -0.21680000       1.56210000       0.15200000
C       -0.10450000       0.06110000      -0.05410000
O       -1.39420000      -0.50530000       0.04930000
C       -1.40400000      -1.90240000      -0.12170000
C       -2.82720000      -2.40690000      -0.03730000
O       -3.51960000      -1.97560000      -1.21290000
C       -4.82130000      -2.31240000      -1.30510000
C       -5.40690000      -1.76280000      -2.58110000
N       -5.39080000      -2.99750000      -0.39920000
H        0.76810000       2.03260000       0.07670000
H       -0.87260000       2.00380000      -0.60350000
H       -0.63370000       1.78360000       1.13850000
H        0.33100000      -0.16250000      -1.04310000
H        0.56870000      -0.38380000       0.69930000
H       -0.96640000      -2.18270000      -1.09430000
H       -0.80790000      -2.39840000       0.66410000
H       -2.84710000      -3.50030000       0.02290000
H       -3.32820000      -2.01290000       0.85200000
H       -6.45910000      -2.03450000      -2.67840000
H       -5.31370000      -0.67270000      -2.59750000
H       -4.85550000      -2.14670000      -3.44490000
H       -6.36800000      -3.15510000      -0.63420000
