15
Properties=species:S:1:pos:R:3 gdb_13362=T pbc="F F F"
C       -0.06430000       1.44710000       0.04670000
C        0.00480000      -0.00670000       0.02770000
C        0.05140000      -1.20920000       0.00040000
C        0.13080000      -2.66540000      -0.00720000
C        0.59440000      -3.27010000       1.35900000
O       -0.46860000      -4.18110000       1.71980000
C       -1.38700000      -4.07610000       0.73190000
N       -1.19220000      -3.30340000      -0.25180000
H        0.63250000       1.88880000      -0.67410000
H       -1.07100000       1.79540000      -0.20880000
H        0.18320000       1.84600000       1.03650000
H        0.80440000      -2.97970000      -0.81380000
H        1.52350000      -3.83940000       1.28270000
H        0.68730000      -2.51580000       2.14270000
H       -2.26240000      -4.70120000       0.87100000
