20
Properties=species:S:1:pos:R:3 gdb_37960=T pbc="F F F"
C        0.02010000       1.59650000       0.13140000
C        1.55410000       1.50420000       0.12810000
C        1.51970000       0.01190000      -0.12840000
C       -0.01840000       0.03340000      -0.04020000
O       -0.79830000      -0.60530000      -1.01730000
C       -0.76870000      -0.06580000      -2.32680000
C        0.62080000       0.04320000      -2.96150000
C        1.49620000       1.17900000      -2.41990000
N        2.07420000       0.93500000      -1.09150000
H       -0.40540000       1.91380000       1.08520000
H       -0.41860000       2.20720000      -0.66140000
H        2.22290000       2.07140000       0.76620000
H        2.15550000      -0.78120000       0.25310000
H       -0.32880000      -0.42390000       0.90380000
H       -1.39180000      -0.74400000      -2.91840000
H       -1.25740000       0.92220000      -2.34720000
H        1.14720000      -0.91280000      -2.85340000
H        0.48010000       0.20760000      -4.03770000
H        2.33700000       1.33260000      -3.10690000
H        0.92510000       2.11790000      -2.42140000
