15
Properties=species:S:1:pos:R:3 gdb_125220=T pbc="F F F"
C        0.03670000       1.49510000       0.12000000
C        0.00140000      -0.00200000       0.05790000
C       -1.11090000      -0.75070000       0.14060000
C       -1.06070000      -2.19930000       0.07190000
N       -2.10270000      -2.92400000       0.14840000
O        0.18700000      -2.77810000      -0.08330000
N        1.36110000      -2.02370000      -0.17220000
C        1.24260000      -0.74570000      -0.10380000
O        2.37050000      -0.00920000      -0.18860000
H        0.66010000       1.83520000       0.95340000
H        0.47950000       1.91180000      -0.79070000
H       -0.96940000       1.90120000       0.24200000
H       -2.09680000      -0.31820000       0.26210000
H       -1.85880000      -3.91350000       0.07960000
H        3.10840000      -0.62780000      -0.29250000
