20
Properties=species:S:1:pos:R:3 gdb_20056=T pbc="F F F"
C       -0.18770000       1.42460000      -0.16300000
C        1.25680000       1.06600000       0.08800000
C        0.20970000      -0.01780000       0.02800000
C       -0.19750000      -0.77170000       1.27800000
C       -1.61450000      -1.40940000       1.19770000
C       -1.51760000      -2.76020000       1.95060000
C       -0.03200000      -3.03710000       1.95530000
C        0.67690000      -1.96760000       1.60080000
H       -0.73450000       1.90870000       0.64010000
H       -0.47180000       1.75820000      -1.15490000
H        1.96010000       1.15370000      -0.73280000
H        1.67670000       1.31220000       1.05820000
H        0.21540000      -0.63150000      -0.87030000
H       -0.15260000      -0.06010000       2.11870000
H       -2.39420000      -0.75350000       1.59300000
H       -1.85490000      -1.59640000       0.14530000
H       -1.89850000      -2.68370000       2.97920000
H       -2.10100000      -3.55360000       1.46940000
H        0.38430000      -3.99220000       2.25800000
H        1.75980000      -1.91200000       1.56340000
