17
Properties=species:S:1:pos:R:3 gdb_108722=T pbc="F F F"
O        0.01110000       1.40350000       0.15330000
C       -0.02640000      -0.00130000       0.02990000
C       -1.43900000      -0.47400000      -0.02870000
C       -2.54180000       0.29510000       0.00690000
C       -3.73100000      -0.55760000      -0.11210000
O       -4.87940000      -0.26150000      -0.36680000
C       -3.27100000      -2.01420000       0.07230000
O       -3.96140000      -2.88530000      -0.78530000
C       -1.75450000      -1.95020000      -0.17140000
H        0.93060000       1.68370000       0.16900000
H        0.49750000      -0.35070000      -0.87770000
H        0.47100000      -0.50400000       0.87910000
H       -2.56200000       1.37450000       0.05110000
H       -3.45240000      -2.27560000       1.13000000
H       -4.81720000      -2.45880000      -0.94330000
H       -1.53600000      -2.29950000      -1.18780000
H       -1.16990000      -2.57050000       0.51640000
