18
Properties=species:S:1:pos:R:3 gdb_70646=T pbc="F F F"
C       -0.50380000       1.26570000       0.01680000
C        0.08880000      -0.11340000       0.07100000
O       -0.46720000      -1.02660000       1.02360000
C        0.91860000      -0.66440000       1.15170000
C        1.86510000      -1.71600000       0.61120000
C        1.24090000      -2.10720000      -0.74690000
C        0.50660000      -0.82310000      -1.22920000
C       -0.60710000      -1.08870000      -2.13610000
N       -1.49240000      -1.28800000      -2.85200000
H        0.17460000       1.96350000      -0.48550000
H       -1.44810000       1.25520000      -0.53720000
H       -0.70220000       1.63330000       1.02600000
H        1.16850000      -0.08720000       2.03860000
H        2.86040000      -1.27220000       0.48660000
H        1.96930000      -2.57600000       1.27900000
H        1.97580000      -2.45260000      -1.47590000
H        0.50710000      -2.90120000      -0.60540000
H        1.20970000      -0.16210000      -1.75310000
