19
Properties=species:S:1:pos:R:3 gdb_119962=T pbc="F F F"
O        0.26440000       1.35530000       0.07330000
C        0.07670000      -0.04140000       0.22050000
C       -1.31820000      -0.49740000      -0.22590000
C       -1.45630000      -2.00520000      -0.14170000
C       -1.91520000      -2.67660000       1.10120000
O       -2.24940000      -1.84160000       2.16730000
C       -2.81770000      -2.72810000      -0.14120000
C       -4.09360000      -1.98150000      -0.16940000
O       -5.08040000      -2.36930000      -0.75100000
H       -0.32930000       1.79810000       0.68800000
H        0.84310000      -0.51040000      -0.40740000
H        0.25690000      -0.36920000       1.25560000
H       -2.06320000      -0.00890000       0.40880000
H       -1.48940000      -0.15730000      -1.25320000
H       -0.69740000      -2.54560000      -0.70250000
H       -1.44960000      -3.61990000       1.38450000
H       -2.91940000      -2.28060000       2.70200000
H       -2.86600000      -3.67260000      -0.67310000
H       -4.10700000      -1.02840000       0.39850000
