22
Properties=species:S:1:pos:R:3 gdb_64327=T pbc="F F F"
C        0.01250000       1.53260000      -0.02200000
C       -0.03090000      -0.00410000      -0.02820000
C       -1.49680000      -0.47270000       0.08250000
C        0.63000000      -0.54150000      -1.31280000
C        0.99190000      -2.02480000      -1.20840000
C        1.97880000      -2.23890000      -0.05770000
C        1.57300000      -1.55890000       1.24450000
O        2.01090000      -1.91360000       2.32450000
N        0.72790000      -0.48680000       1.13490000
H        1.04540000       1.89040000      -0.05600000
H       -0.52550000       1.93750000      -0.88490000
H       -0.45890000       1.93490000       0.88190000
H       -2.09750000      -0.07360000      -0.74140000
H       -1.57100000      -1.56320000       0.06820000
H       -1.93980000      -0.12330000       1.02090000
H       -0.04520000      -0.35870000      -2.15490000
H        1.54390000       0.03400000      -1.50700000
H        0.08970000      -2.62580000      -1.04560000
H        1.42760000      -2.37410000      -2.15020000
H        2.13470000      -3.29590000       0.16970000
H        2.96220000      -1.83160000      -0.32770000
H        0.48330000      -0.09000000       2.03310000
