19
Properties=species:S:1:pos:R:3 gdb_110067=T pbc="F F F"
C        2.47030000      -0.81090000      -1.90700000
C        1.41720000      -1.16640000      -0.88620000
O        0.89310000      -2.45590000      -1.01350000
C        1.47330000      -0.70360000       0.51650000
C        2.62770000       0.10820000       1.06700000
O        3.79640000      -0.68640000       1.22240000
C        0.38310000      -0.10150000      -0.39310000
C        0.39060000       1.29310000      -0.86840000
O        1.36480000       1.99330000      -1.05380000
H        2.76410000       0.23590000      -1.83790000
H        3.35120000      -1.44100000      -1.75720000
H        2.08720000      -0.98280000      -2.92050000
H        0.61550000      -2.57650000      -1.92870000
H        1.05780000      -1.42310000       1.22000000
H        2.89260000       0.91850000       0.38820000
H        2.32530000       0.56970000       2.01940000
H        3.59410000      -1.39780000       1.83880000
H       -0.60870000      -0.51370000      -0.24090000
H       -0.62610000       1.69300000      -1.08160000
