11
Properties=species:S:1:pos:R:3 gdb_131421=T pbc="F F F"
O       -0.10470000       1.35970000      -0.19180000
C       -0.00870000       0.04230000      -0.01780000
N        1.14810000      -0.50280000       0.03660000
O        1.18970000      -1.90040000       0.22210000
C        0.07930000      -2.66900000       0.34290000
O        0.15640000      -3.84210000       0.49650000
O       -1.13290000      -2.04030000       0.27770000
C       -1.28360000      -0.68290000       0.09870000
N       -2.40510000      -0.12030000       0.04100000
H        0.79530000       1.71520000      -0.25330000
H       -3.16490000      -0.79570000       0.14290000
