23
Properties=species:S:1:pos:R:3 gdb_122191=T pbc="F F F"
C        0.07140000       1.54230000      -0.11600000
C        0.00250000       0.01780000       0.00650000
C       -1.43190000      -0.52080000      -0.01490000
C       -1.50090000      -2.04600000       0.11780000
C       -2.91890000      -2.60510000       0.10640000
O       -3.61300000      -2.02550000       1.18490000
C       -3.61250000      -2.60870000      -1.28480000
O       -3.38580000      -4.02400000      -1.42790000
C       -2.99210000      -4.14770000      -0.04740000
H        1.10570000       1.89960000      -0.09410000
H       -0.37920000       1.88520000      -1.05430000
H       -0.46720000       2.02900000       0.70460000
H        0.57740000      -0.44250000      -0.80830000
H        0.49300000      -0.29740000       0.93720000
H       -2.01110000      -0.06730000       0.79680000
H       -1.91880000      -0.20920000      -0.94970000
H       -0.94020000      -2.52300000      -0.69560000
H       -1.02320000      -2.35600000       1.05640000
H       -4.51970000      -2.35010000       1.17610000
H       -4.68440000      -2.36200000      -1.23470000
H       -3.15120000      -2.03030000      -2.09300000
H       -2.06340000      -4.71710000       0.07300000
H       -3.77970000      -4.60580000       0.57040000
