21
Properties=species:S:1:pos:R:3 gdb_101204=T pbc="F F F"
C       -0.21510000       1.46690000       0.03030000
C        0.05170000      -0.04270000      -0.03060000
C        0.76640000      -0.41960000      -1.33020000
O       -0.07600000      -0.07160000      -2.41920000
C        0.84520000      -0.52890000       1.18180000
C        0.16520000      -0.40370000       2.58430000
C        0.58210000      -1.85650000       2.85810000
O        0.64330000      -2.53020000       3.84480000
C        0.99270000      -2.07260000       1.39350000
H        0.72740000       2.02650000       0.07310000
H       -0.76030000       1.79250000      -0.85790000
H       -0.80180000       1.73360000       0.91450000
H       -0.91550000      -0.56700000      -0.03860000
H        1.73010000       0.11510000      -1.38460000
H        0.98940000      -1.49810000      -1.33590000
H        0.38690000      -0.27460000      -3.23690000
H        1.82930000      -0.04710000       1.19660000
H        0.53790000       0.34770000       3.28450000
H       -0.92550000      -0.30860000       2.52140000
H        0.23460000      -2.64950000       0.85040000
H        1.96760000      -2.53770000       1.22790000
