11
Properties=species:S:1:pos:R:3 gdb_1588=T pbc="F F F"
N       -0.04100000       1.34790000       0.10400000
C        0.07840000      -0.00270000       0.01810000
N        1.12820000      -0.73950000      -0.04700000
C       -1.25910000      -0.70950000       0.01370000
O       -2.29630000      -0.09010000       0.00490000
C       -1.25410000      -2.25560000       0.01050000
O       -2.29100000      -2.85890000      -0.06000000
H        0.75080000       1.94850000      -0.04730000
H       -0.96860000       1.73360000       0.01750000
H        1.98650000      -0.18380000      -0.05610000
H       -0.26690000      -2.73880000       0.07860000
