18
Properties=species:S:1:pos:R:3 gdb_47564=T pbc="F F F"
O        0.06010000      -0.03820000      -0.24510000
C       -0.00480000       1.13820000      -0.03600000
C       -1.27840000       1.96160000       0.10960000
N       -1.52190000       2.81550000      -1.05630000
C       -0.49340000       3.80930000      -1.37010000
C        0.79240000       3.28570000      -2.01950000
C        2.14140000       3.66240000      -1.42830000
C        1.61020000       2.27830000      -1.25880000
O        1.12410000       1.94520000       0.02770000
H       -2.12660000       1.28520000       0.23730000
H       -1.19450000       2.59880000       0.99670000
H       -1.72600000       2.24250000      -1.86860000
H       -0.94260000       4.55370000      -2.03720000
H       -0.25310000       4.32900000      -0.43720000
H        0.74480000       3.15650000      -3.09750000
H        2.98940000       3.80910000      -2.08790000
H        2.13160000       4.29950000      -0.55040000
H        2.07720000       1.44780000      -1.78050000
