17
Properties=species:S:1:pos:R:3 gdb_29554=T pbc="F F F"
C       -0.01310000       1.49380000       0.04020000
C       -0.01950000      -0.00680000      -0.01210000
C       -0.05370000      -0.69630000      -1.18900000
N       -0.04550000      -2.05450000      -1.22230000
C       -0.01340000      -2.80650000      -0.07000000
C        0.01740000      -2.19850000       1.14880000
N       -0.00180000      -2.85430000       2.36760000
C        0.02940000      -0.72820000       1.24500000
O        0.09000000      -0.17890000       2.35330000
H        0.87510000       1.85730000       0.56780000
H       -0.03350000       1.93480000      -0.96060000
H       -0.87440000       1.86530000       0.60570000
H       -0.08430000      -0.20320000      -2.15390000
H       -0.07010000      -2.52660000      -2.10940000
H       -0.01990000      -3.88100000      -0.20410000
H        0.48210000      -3.73730000       2.42090000
H        0.23690000      -2.20330000       3.10900000
