20
Properties=species:S:1:pos:R:3 gdb_108004=T pbc="F F F"
C        0.09150000       1.53540000       0.10820000
C       -0.05820000       0.01690000      -0.04380000
C       -1.48700000      -0.47320000      -0.03400000
C       -2.64830000       0.07860000      -0.89360000
N       -3.60370000      -0.50390000       0.12010000
C       -3.28420000      -1.96570000       0.12420000
C       -2.46240000      -1.93530000       1.37820000
C       -1.75950000      -2.00210000       0.03010000
C       -2.48840000      -0.40460000       1.18180000
H        1.14690000       1.82290000       0.13230000
H       -0.37920000       2.07060000      -0.72250000
H       -0.37060000       1.88990000       1.03580000
H        0.42110000      -0.30680000      -0.97850000
H        0.49010000      -0.48820000       0.76280000
H       -2.72710000       1.16980000      -0.87130000
H       -2.77460000      -0.28580000      -1.91830000
H       -3.95160000      -2.71990000      -0.27190000
H       -2.44260000      -2.58270000       2.24360000
H       -1.19570000      -2.81310000      -0.41190000
H       -2.55010000       0.38390000       1.92990000
