15
Properties=species:S:1:pos:R:3 gdb_29378=T pbc="F F F"
C        0.21130000       1.52610000      -0.07380000
C        0.02790000       0.04740000      -0.03440000
C       -0.32520000      -0.81300000      -1.01970000
O       -0.36250000      -2.07980000      -0.49760000
C       -0.02710000      -1.91200000       0.80010000
C        0.04710000      -3.12730000       1.67100000
C       -1.22300000      -3.85260000       1.76140000
N       -2.21970000      -4.43080000       1.83470000
N        0.21460000      -0.68840000       1.13820000
H        1.23040000       1.80030000       0.21790000
H        0.02210000       1.91830000      -1.07600000
H       -0.47040000       2.02120000       0.62520000
H       -0.57020000      -0.71740000      -2.06330000
H        0.81380000      -3.81780000       1.29880000
H        0.35230000      -2.79930000       2.66770000
