16
Properties=species:S:1:pos:R:3 gdb_124784=T pbc="F F F"
C        0.02840000       1.51060000      -0.29650000
C        0.03900000       0.03030000       0.11730000
O        0.63460000      -0.13030000       1.38190000
C       -1.36340000      -0.54490000       0.08260000
N       -1.99250000      -0.61880000      -1.10170000
C       -3.21230000      -1.12600000      -1.05280000
C       -3.77060000      -1.53840000       0.16150000
N       -3.09820000      -1.43760000       1.30120000
N       -1.86920000      -0.93210000       1.25320000
H        1.05250000       1.89090000      -0.27820000
H       -0.38150000       1.63270000      -1.30240000
H       -0.56890000       2.09590000       0.40940000
H        0.62440000      -0.52970000      -0.62830000
H       -0.06100000      -0.44660000       1.97760000
H       -3.76280000      -1.21110000      -1.98710000
H       -4.76980000      -1.95610000       0.22620000
