17
Properties=species:S:1:pos:R:3 gdb_133871=T pbc="F F F"
C       -0.92910000      -1.71610000       0.51960000
C        0.56440000      -1.56190000      -0.02310000
C        0.69470000      -0.41460000       1.01710000
O        1.43190000       0.77600000       0.78110000
C        0.62700000       1.45520000      -0.16760000
C       -0.86660000       1.32120000       0.37440000
C       -0.69990000      -0.18220000       0.37530000
C       -0.02550000      -0.49570000      -0.98780000
O        0.66280000       0.68950000      -1.35990000
H       -1.03140000      -2.11190000       1.53230000
H       -1.64140000      -2.18050000      -0.16570000
H        1.25570000      -2.37940000      -0.23840000
H        0.76330000      -0.69160000       2.07140000
H        1.02360000       2.45260000      -0.35040000
H       -1.58570000       1.72490000      -0.34040000
H       -0.97780000       1.79330000       1.35200000
H       -0.63540000      -0.84900000      -1.82220000
