16
Properties=species:S:1:pos:R:3 gdb_45389=T pbc="F F F"
O        0.03000000       0.04510000      -0.56010000
C       -0.03730000       1.16380000      -0.15710000
C       -1.15120000       2.03720000       0.43750000
C       -0.13620000       3.19720000       0.61790000
C        0.63610000       3.18330000       1.96040000
C        1.74020000       2.27720000       1.34510000
C        1.00850000       2.31270000      -0.04570000
C        1.76630000       2.67220000      -1.21350000
N        2.36410000       2.97430000      -2.15720000
H       -1.91400000       2.24410000      -0.32120000
H       -1.65020000       1.64990000       1.33020000
H       -0.42200000       4.16050000       0.20130000
H        1.01080000       4.16600000       2.25190000
H        0.08560000       2.76250000       2.80520000
H        2.72340000       2.74620000       1.29890000
H        1.85290000       1.27570000       1.76440000
