19
Properties=species:S:1:pos:R:3 gdb_72285=T pbc="F F F"
C       -0.05680000       1.54090000      -0.06700000
C       -0.07660000       0.04890000      -0.01600000
O        0.64800000      -0.64520000      -1.04060000
C       -0.31670000      -1.74410000      -1.00520000
C        0.33040000      -3.01470000      -0.46350000
C        1.21400000      -2.64970000       0.73670000
O        0.56470000      -1.81990000       1.69930000
C       -0.27450000      -0.81790000       1.20850000
C       -1.18130000      -1.01150000       0.02610000
H        0.96440000       1.91270000       0.07380000
H       -0.42110000       1.90440000      -1.03340000
H       -0.68300000       1.96260000       0.72440000
H       -0.77730000      -1.87340000      -1.98830000
H       -0.45860000      -3.72140000      -0.18000000
H        0.95490000      -3.49840000      -1.22270000
H        1.51670000      -3.54760000       1.28300000
H        2.11700000      -2.14770000       0.37030000
H       -0.72050000      -0.28990000       2.04660000
H       -2.26290000      -0.95670000       0.03680000
