19
Properties=species:S:1:pos:R:3 gdb_69770=T pbc="F F F"
C       -0.04270000       1.50900000       0.05100000
C       -0.03310000       0.00080000       0.08610000
C       -1.25620000      -0.71760000      -0.48830000
C       -1.45320000      -2.08160000       0.19000000
C       -0.16720000      -2.93630000       0.20670000
C        0.10200000      -2.10200000       1.47150000
O       -1.33640000      -1.89770000       1.63370000
C        0.71270000      -0.74760000       1.11270000
O        1.23930000      -0.60390000      -0.21630000
H        0.89220000       1.90720000       0.45320000
H       -0.15360000       1.87130000      -0.97740000
H       -0.87670000       1.90610000       0.63870000
H       -2.14360000      -0.10390000      -0.29850000
H       -1.15960000      -0.82750000      -1.57550000
H       -2.40010000      -2.55120000      -0.08890000
H       -0.38080000      -3.97690000       0.45390000
H        0.53250000      -2.85540000      -0.62270000
H        0.55260000      -2.56650000       2.35120000
H        1.27030000      -0.21680000       1.88250000
