13
Properties=species:S:1:pos:R:3 gdb_20659=T pbc="F F F"
C       -0.06170000       1.48950000       0.00140000
C       -0.00310000      -0.01150000      -0.01390000
C        0.12630000      -0.75720000      -1.19340000
N        0.17540000      -2.07810000      -1.17510000
C        0.09190000      -2.62020000       0.04660000
O        0.13500000      -3.95340000       0.13560000
N       -0.03220000      -1.97080000       1.20350000
N       -0.07920000      -0.64640000       1.15860000
H        0.84620000       1.92890000      -0.42610000
H       -0.91040000       1.86200000      -0.58240000
H       -0.16630000       1.83590000       1.03070000
H        0.19070000      -0.27100000      -2.16510000
H        0.22500000      -4.28850000      -0.76690000
