18
Properties=species:S:1:pos:R:3 gdb_108410=T pbc="F F F"
C        0.13960000       1.46550000      -0.27880000
N        0.02340000       0.05710000       0.20910000
H        0.62700000      -0.54480000      -0.36130000
H        0.31850000      -0.00490000       1.18910000
C       -1.34520000      -0.53170000      -0.00990000
C       -2.47980000      -0.37310000       1.01890000
O       -2.84900000      -1.74850000       0.86100000
C       -1.68050000      -2.00070000      -0.03980000
C       -1.63890000      -1.22120000      -1.25480000
C       -2.52470000      -0.89370000      -2.32630000
O       -3.20400000      -1.65220000      -2.99800000
H        1.16510000       1.81990000      -0.16020000
H       -0.15580000       1.46100000      -1.32840000
H       -0.54650000       2.08600000       0.29780000
H       -2.13660000      -0.17450000       2.04920000
H       -3.28360000       0.32790000       0.76570000
H       -1.11680000      -2.88420000       0.24800000
H       -2.49170000       0.20280000      -2.58150000
