20
Properties=species:S:1:pos:R:3 gdb_32522=T pbc="F F F"
C        0.17990000       1.52400000       0.15400000
C       -0.03880000       0.01630000      -0.06130000
C        0.65820000      -0.51880000      -1.27740000
C        0.09250000      -0.96750000      -2.45040000
N        1.09000000      -1.35590000      -3.30290000
C        2.31970000      -1.16960000      -2.70360000
C        2.06990000      -0.65200000      -1.45010000
O        2.94860000      -0.29910000      -0.47110000
C        4.31080000      -0.49600000      -0.78230000
H        1.24590000       1.74440000       0.25740000
H       -0.20210000       2.09910000      -0.69560000
H       -0.33090000       1.87060000       1.05870000
H        0.31320000      -0.52020000       0.82900000
H       -1.11210000      -0.19210000      -0.14220000
H       -0.94550000      -1.04160000      -2.73460000
H        0.95320000      -1.72990000      -4.22370000
H        3.23550000      -1.41710000      -3.21100000
H        4.52390000      -1.55410000      -0.99110000
H        4.61200000       0.10100000      -1.65500000
H        4.88610000      -0.17700000       0.08890000
