18
Properties=species:S:1:pos:R:3 gdb_80666=T pbc="F F F"
O        0.10040000       1.33950000       0.22790000
C       -0.01680000      -0.05160000       0.03300000
C       -1.48790000      -0.47370000      -0.00370000
C       -1.54680000      -1.99050000      -0.34750000
C       -1.38290000      -1.54130000      -1.82320000
C       -2.08080000      -0.20920000      -1.41790000
N        0.03770000      -1.28650000      -2.08100000
C        0.71040000      -0.41520000      -1.28160000
O        1.78840000       0.08750000      -1.55070000
H        0.96190000       1.57580000      -0.14660000
H        0.49220000      -0.60240000       0.84400000
H       -2.02020000      -0.10220000       0.87350000
H       -0.77610000      -2.65060000       0.05970000
H       -2.53660000      -2.41160000      -0.15810000
H       -1.78840000      -2.15570000      -2.62720000
H       -3.16910000      -0.30240000      -1.42580000
H       -1.77720000       0.70120000      -1.93940000
H        0.42010000      -1.43900000      -3.00310000
