20
Properties=species:S:1:pos:R:3 gdb_104368=T pbc="F F F"
C       -0.31250000       1.36880000       0.13790000
C       -0.12160000      -0.12270000      -0.14860000
C        0.91690000      -0.43400000      -1.25060000
O        2.17390000       0.12550000      -0.92900000
C        1.01220000      -1.94390000      -1.53400000
C       -0.04830000      -2.19300000      -2.63200000
N       -0.13210000      -0.89670000      -3.29360000
C        0.45430000       0.11930000      -2.61190000
O        0.62500000       1.26570000      -2.98320000
H        0.63250000       1.81860000       0.45480000
H       -0.66200000       1.90980000      -0.74540000
H       -1.04050000       1.51470000       0.94140000
H        0.22510000      -0.63030000       0.75990000
H       -1.08110000      -0.58360000      -0.41860000
H        2.20010000       0.98020000      -1.38420000
H        2.01260000      -2.15310000      -1.92160000
H        0.84640000      -2.56290000      -0.64960000
H        0.25680000      -2.97390000      -3.33500000
H       -1.01630000      -2.48770000      -2.20560000
H       -0.54460000      -0.75280000      -4.20160000
