15
Properties=species:S:1:pos:R:3 gdb_34821=T pbc="F F F"
C       -0.10880000      -1.19050000      -0.12660000
C       -0.04060000       0.00630000      -0.04180000
C        0.00510000       1.44880000       0.02530000
C        0.14190000       2.12580000       1.43210000
O        1.53800000       1.64490000       1.50670000
C        1.40490000       2.14670000       0.12240000
C        0.69630000       3.37190000       0.72260000
O        0.03240000       4.42860000       0.09930000
C        1.05810000       4.72270000       1.09320000
H       -0.15910000      -2.24920000      -0.19190000
H       -0.70700000       1.92790000      -0.65370000
H       -0.48910000       2.01310000       2.31180000
H        2.26270000       2.05870000      -0.54180000
H        0.68560000       5.15380000       2.01990000
H        1.96370000       5.17500000       0.69460000
