23
Properties=species:S:1:pos:R:3 gdb_110385=T pbc="F F F"
C        0.00950000       1.64170000      -0.17190000
C        0.02220000       0.15890000       0.21770000
C       -1.35630000      -0.48530000       0.14210000
C       -1.95840000      -0.86810000      -1.23010000
C       -1.12040000      -2.19170000      -1.33320000
C       -2.37680000      -3.03940000      -1.63620000
C       -2.39250000      -4.51800000      -1.27890000
C       -2.84790000      -1.99400000      -0.60090000
C       -1.49060000      -2.02360000       0.18730000
H        1.00710000       2.08500000      -0.09320000
H       -0.33490000       1.77780000      -1.20280000
H       -0.66160000       2.21500000       0.47760000
H        0.72150000      -0.38510000      -0.42940000
H        0.40930000       0.05460000       1.24030000
H       -2.06130000       0.04110000       0.80130000
H       -2.24480000      -0.22940000      -2.06850000
H       -0.11660000      -2.29420000      -1.74920000
H       -2.78530000      -2.87940000      -2.64300000
H       -1.98560000      -4.69820000      -0.27830000
H       -3.41250000      -4.91820000      -1.30060000
H       -1.79650000      -5.10120000      -1.99010000
H       -3.83730000      -1.85140000      -0.16030000
H       -1.22550000      -2.70270000       0.99940000
