20
Properties=species:S:1:pos:R:3 gdb_71742=T pbc="F F F"
C        0.02420000       1.50230000      -0.02770000
C        0.04290000      -0.01070000      -0.02160000
C        0.53570000      -0.72800000      -1.27220000
N        0.40360000      -2.13620000      -0.87910000
C       -0.75150000      -2.19710000       0.04550000
C        0.63910000      -2.17770000       0.58230000
C        0.68410000      -0.76540000       1.20120000
C       -0.69570000      -0.66340000       1.91540000
C       -1.23490000      -0.79220000       0.46040000
H        1.03020000       1.90410000      -0.19370000
H       -0.61900000       1.88110000      -0.83010000
H       -0.34510000       1.91930000       0.91410000
H       -0.08160000      -0.52380000      -2.15470000
H        1.58060000      -0.50060000      -1.51300000
H       -1.40060000      -3.06220000      -0.00340000
H        1.17340000      -3.02630000       0.99030000
H        1.61440000      -0.43720000       1.66600000
H       -0.95930000      -1.45120000       2.62660000
H       -0.88340000       0.31480000       2.36620000
H       -2.24380000      -0.49100000       0.17660000
