18
Properties=species:S:1:pos:R:3 gdb_29189=T pbc="F F F"
C       -0.03260000       1.55310000      -0.01030000
C       -0.00780000       0.04760000       0.00030000
C       -0.02790000      -0.65970000      -1.16270000
N       -0.00620000      -2.02080000      -1.17640000
C        0.03800000      -2.84040000      -0.03430000
O        0.05510000      -4.05640000      -0.14870000
C        0.05920000      -2.07350000       1.19380000
C        0.03790000      -0.70840000       1.22820000
C        0.06180000       0.02110000       2.54600000
H        0.85390000       1.98240000       0.47160000
H       -0.06680000       1.93430000      -1.03470000
H       -0.90500000       1.95370000       0.51970000
H       -0.06210000      -0.17840000      -2.13370000
H       -0.02180000      -2.52380000      -2.05250000
H        0.09370000      -2.65620000       2.10730000
H        0.09720000      -0.67880000       3.38320000
H        0.93150000       0.68450000       2.61720000
H       -0.82530000       0.65380000       2.66590000
