19
Properties=species:S:1:pos:R:3 gdb_84454=T pbc="F F F"
C        0.13550000       1.59730000      -0.00080000
C        0.02850000       0.06590000      -0.01700000
C        0.72410000      -0.58830000      -1.19830000
C        1.55780000      -1.56990000      -0.85330000
C        1.59260000      -1.79300000       0.63590000
O        1.39300000      -3.12230000       1.04440000
C        2.73440000      -1.09520000       1.39470000
O        1.90530000       0.06030000       1.64050000
C        0.71310000      -0.62110000       1.17940000
H        1.17980000       1.90610000       0.07670000
H       -0.29210000       2.02340000      -0.91390000
H       -0.40650000       2.01750000       0.85210000
H       -1.03920000      -0.20020000      -0.03100000
H        0.54830000      -0.25590000      -2.21710000
H        2.16030000      -2.16370000      -1.53300000
H        0.71890000      -3.51100000       0.47650000
H        2.99750000      -1.61910000       2.32260000
H        3.64190000      -0.84510000       0.83480000
H        0.04120000      -0.85610000       2.01230000
