25
Properties=species:S:1:pos:R:3 gdb_60061=T pbc="F F F"
C       -3.38690000       1.27870000      -0.13320000
C       -2.31850000       0.58030000      -0.97470000
C       -1.37250000       1.58550000      -1.63580000
O       -1.58030000      -0.28700000      -0.10860000
C       -1.43210000      -1.63580000      -0.50650000
C       -0.54370000      -1.78720000      -1.74170000
C       -0.96420000      -2.51400000       0.68290000
C       -2.02090000      -3.57850000       0.28330000
C       -2.73420000      -2.50260000      -0.57990000
H       -3.96980000       1.97860000      -0.74080000
H       -4.07130000       0.54970000       0.30920000
H       -2.91500000       1.83830000       0.68090000
H       -2.81630000      -0.01520000      -1.75320000
H       -0.84900000       2.16430000      -0.86800000
H       -0.62190000       1.08210000      -2.25010000
H       -1.92720000       2.28230000      -2.27330000
H        0.42940000      -1.31780000      -1.56640000
H       -0.37830000      -2.84450000      -1.97300000
H       -0.99880000      -1.32620000      -2.62440000
H        0.08750000      -2.81120000       0.70140000
H       -1.21450000      -2.01960000       1.62410000
H       -1.59720000      -4.38450000      -0.32140000
H       -2.60110000      -4.02750000       1.09160000
H       -3.54800000      -2.02070000      -0.03240000
H       -3.09380000      -2.79850000      -1.56910000
