23
Properties=species:S:1:pos:R:3 gdb_119375=T pbc="F F F"
C       -0.04790000       1.55420000       0.06750000
C       -0.00650000       0.02380000       0.05710000
C       -1.40140000      -0.61210000      -0.01190000
C       -1.39620000      -2.11970000      -0.01830000
C       -0.82040000      -3.08870000      -1.09910000
C       -1.42000000      -4.02460000      -0.01390000
C       -0.75970000      -3.08760000       1.03900000
C       -2.64690000      -3.06480000      -0.01460000
O       -3.57650000      -3.04060000       1.03240000
H        0.95860000       1.98130000       0.11880000
H       -0.52940000       1.94330000      -0.83650000
H       -0.61330000       1.92870000       0.92810000
H        0.59190000      -0.32190000      -0.79540000
H        0.51010000      -0.33540000       0.95630000
H       -2.00410000      -0.26770000       0.84020000
H       -1.92200000      -0.25640000      -0.91220000
H       -1.31140000      -3.08400000      -2.07730000
H        0.26730000      -3.11010000      -1.19740000
H       -1.42470000      -5.11510000      -0.01560000
H        0.33260000      -3.10730000       1.08650000
H       -1.16940000      -3.07960000       2.05510000
H       -3.23830000      -3.05650000      -0.93500000
H       -3.10950000      -3.09370000       1.87230000
