23
Properties=species:S:1:pos:R:3 gdb_60593=T pbc="F F F"
O       -0.23420000       1.52550000       0.04060000
C       -0.04850000       0.10970000      -0.03350000
C        0.68550000      -0.29540000      -1.29460000
C        0.31480000      -1.56530000      -2.02050000
C       -0.01060000      -0.22440000      -2.62840000
C        0.62570000      -0.43920000       1.22510000
C        1.98970000       0.15610000       1.68740000
C        1.48750000       0.06130000       3.15310000
C        0.03800000      -0.05350000       2.61050000
H        0.59230000       1.94350000      -0.22070000
H       -1.06900000      -0.29580000      -0.07830000
H        1.74550000      -0.04520000      -1.28860000
H        1.10940000      -2.15610000      -2.46250000
H       -0.50510000      -2.15450000      -1.62250000
H       -1.04710000       0.09570000      -2.63200000
H        0.55800000       0.10120000      -3.49250000
H        0.70500000      -1.52800000       1.12850000
H        2.90260000      -0.38250000       1.42100000
H        2.09670000       1.20080000       1.37650000
H        1.81780000      -0.86500000       3.63250000
H        1.71540000       0.89600000       3.82030000
H       -0.45030000       0.92270000       2.55420000
H       -0.63610000      -0.76490000       3.09440000
