18
Properties=species:S:1:pos:R:3 gdb_63610=T pbc="F F F"
C        0.05940000       1.53950000      -0.51550000
C       -0.04700000       0.09470000      -0.07680000
C       -1.26250000      -0.64760000      -0.59740000
N        1.22360000      -0.61740000       0.01700000
C        0.49310000      -0.34780000       1.26960000
C        1.11080000       0.60660000       2.24380000
O        1.95560000       1.42880000       1.95940000
C        0.58230000       0.49990000       3.59710000
C        0.14690000       0.39620000       4.71490000
H        0.96260000       2.00050000      -0.11640000
H        0.09790000       1.58790000      -1.60940000
H       -0.81330000       2.11260000      -0.18430000
H       -1.24560000      -0.67870000      -1.69310000
H       -1.29630000      -1.67750000      -0.22750000
H       -2.18940000      -0.14830000      -0.29650000
H        1.11100000      -1.59890000      -0.22800000
H       -0.04620000      -1.16640000       1.74060000
H       -0.22660000       0.32330000       5.70750000
