12
Properties=species:S:1:pos:R:3 gdb_132826=T pbc="F F F"
F        0.00390000       0.03170000       0.00310000
C       -0.02770000       1.35750000       0.01070000
C       -1.24020000       2.02810000       0.03040000
C       -1.20790000       3.41620000       0.03750000
C        0.02980000       4.06270000       0.02460000
N        1.19280000       3.41890000       0.00580000
C        1.16940000       2.07950000      -0.00120000
C        2.42490000       1.38060000      -0.02160000
N        3.42710000       0.80430000      -0.03800000
H       -2.16500000       1.46370000       0.03960000
H       -2.12660000       3.99130000       0.05280000
H        0.08490000       5.14740000       0.02980000
