21
Properties=species:S:1:pos:R:3 gdb_60590=T pbc="F F F"
C        0.13900000       1.60290000      -0.10550000
C        0.01860000       0.07460000      -0.10710000
C        0.83350000      -0.60640000       0.98050000
C        2.06280000      -0.06000000       1.56680000
O        0.82630000      -0.00360000       2.28200000
C       -1.44310000      -0.35090000       0.03980000
C       -2.39720000      -0.12760000      -1.15510000
C       -2.60470000      -1.65320000      -1.08970000
O       -1.60990000      -1.78910000      -0.05410000
H        1.14040000       1.92590000      -0.40250000
H       -0.56940000       2.04960000      -0.80970000
H       -0.06700000       2.00220000       0.89150000
H        0.37240000      -0.32380000      -1.06900000
H        0.70510000      -1.68830000       1.00260000
H        2.80840000      -0.74060000       1.97620000
H        2.45120000       0.90050000       1.23450000
H       -1.83630000       0.01920000       0.99730000
H       -3.27610000       0.48990000      -0.96590000
H       -1.89900000       0.22440000      -2.06150000
H       -3.59670000      -1.97110000      -0.74440000
H       -2.34380000      -2.22520000      -1.98770000
