14
Properties=species:S:1:pos:R:3 gdb_45941=T pbc="F F F"
N       -0.08040000       1.29730000       0.01990000
C       -0.03940000       0.04110000       0.07590000
O        1.10150000      -0.71140000       0.19780000
C        0.83140000      -2.11960000       0.20520000
C       -0.68290000      -2.27300000       0.08150000
O       -1.29990000      -3.30140000       0.02720000
C       -1.22160000      -0.87040000       0.04440000
C       -2.54770000      -0.51180000       0.59370000
O       -2.33020000      -0.58220000      -0.80120000
H        0.85660000       1.70120000       0.05320000
H        1.34230000      -2.60010000      -0.63590000
H        1.19900000      -2.56160000       1.13750000
H       -3.16040000      -1.30660000       1.01550000
H       -2.65890000       0.49020000       1.00270000
