18
Properties=species:S:1:pos:R:3 gdb_55385=T pbc="F F F"
C        0.44110000       1.36860000      -0.67600000
C        0.16980000      -0.02400000      -0.21180000
C        0.17780000      -1.16090000      -0.90380000
C       -0.19760000      -2.32130000      -0.03340000
O       -0.42750000      -1.75020000       1.26130000
C       -0.20800000      -0.34030000       1.22260000
C        0.87360000       0.10390000       2.22790000
N        1.46430000      -0.91650000       2.89320000
O        1.14940000       1.28120000       2.37250000
H        1.21070000       1.83980000      -0.05820000
H        0.75270000       1.38190000      -1.72350000
H       -0.45600000       1.99230000      -0.57580000
H        0.40350000      -1.26420000      -1.95780000
H       -1.11210000      -2.83120000      -0.37240000
H        0.59290000      -3.08450000       0.03520000
H       -1.12730000       0.18830000       1.51980000
H        1.09960000      -1.84740000       2.77890000
H        2.13470000      -0.70690000       3.61350000
