23
Properties=species:S:1:pos:R:3 gdb_58583=T pbc="F F F"
C       -0.00920000       1.57140000       0.07110000
C       -0.03710000       0.03600000       0.00380000
C       -1.49120000      -0.45450000       0.08220000
C        0.70110000      -0.51240000      -1.24680000
C        2.14020000      -0.00230000      -1.35690000
C        0.64960000      -2.06490000      -1.33610000
O       -0.39910000      -2.33550000      -2.25310000
C       -0.34170000      -1.26780000      -3.16330000
O       -0.03570000      -0.10930000      -2.42270000
H        1.00070000       1.96760000       0.20540000
H       -0.42620000       2.00010000      -0.84570000
H       -0.61340000       1.92430000       0.91270000
H        0.50910000      -0.35630000       0.87390000
H       -2.07490000      -0.04280000      -0.74580000
H       -1.57670000      -1.54280000       0.03560000
H       -1.94900000      -0.12070000       1.01870000
H        2.72270000      -0.28220000      -0.47170000
H        2.62900000      -0.43410000      -2.23510000
H        2.16870000       1.08380000      -1.45820000
H        1.60450000      -2.46390000      -1.71050000
H        0.41440000      -2.55100000      -0.38740000
H        0.43530000      -1.45160000      -3.92940000
H       -1.31900000      -1.15280000      -3.64200000
