17
Properties=species:S:1:pos:R:3 gdb_49586=T pbc="F F F"
O       -0.78200000       1.07330000       0.32090000
C        0.29570000       0.98120000      -0.21470000
C        1.40020000       1.98960000      -0.09380000
C        1.49010000       2.96750000      -1.29420000
C        0.24870000       3.81020000      -1.36560000
C        1.30170000       4.15030000      -0.34600000
C        1.23630000       3.22180000       0.87810000
C        0.03440000       3.31680000       1.79880000
O        0.10330000       3.12200000       2.98630000
H        0.52140000       0.13190000      -0.89940000
H        2.34950000       1.47280000       0.07380000
H        2.17290000       2.85590000      -2.12610000
H        0.20660000       4.48500000      -2.21410000
H       -0.71560000       3.40510000      -1.07410000
H        1.81490000       5.10350000      -0.35800000
H        2.12660000       3.29730000       1.50570000
H       -0.91510000       3.62810000       1.31860000
