17
Properties=species:S:1:pos:R:3 gdb_46787=T pbc="F F F"
O        0.03210000       0.28640000       0.99150000
C        0.01650000       1.22930000       0.24820000
C       -1.30310000       1.95580000      -0.03670000
C       -1.27660000       3.32240000      -0.69790000
C       -0.09450000       4.23570000      -0.30860000
C        0.52630000       3.66540000      -1.59850000
C        1.45610000       2.48430000      -1.39930000
O        1.20700000       1.65060000      -0.25860000
O       -0.77040000       3.21290000      -2.05300000
H       -1.90430000       1.28160000      -0.65820000
H       -1.80850000       2.00740000       0.93340000
H       -2.27610000       3.76790000      -0.68190000
H       -0.33580000       5.29530000      -0.39380000
H        0.41680000       4.03940000       0.63450000
H        0.98100000       4.36750000      -2.30650000
H        1.43080000       1.86300000      -2.30290000
H        2.48210000       2.83510000      -1.25050000
