19
Properties=species:S:1:pos:R:3 gdb_113591=T pbc="F F F"
O       -0.15080000       1.32410000      -0.75100000
C        0.02150000       0.13580000       0.00750000
C       -1.32820000      -0.50990000       0.17250000
C       -1.92120000      -1.36300000      -0.94000000
C       -1.46670000      -1.98370000       0.35310000
C       -0.32990000      -3.00870000       0.44490000
O       -0.89160000      -4.07860000       1.20160000
C       -2.27780000      -3.82850000       1.28420000
O       -2.43350000      -2.43070000       1.27630000
H        0.69370000       1.78360000      -0.78320000
H        0.71200000      -0.56000000      -0.49810000
H        0.45130000       0.35630000       0.99770000
H       -2.04320000       0.08580000       0.73240000
H       -2.98850000      -1.28710000      -1.11300000
H       -1.31810000      -1.52530000      -1.82870000
H       -0.01230000      -3.35410000      -0.54740000
H        0.54710000      -2.63440000       0.98490000
H       -2.80650000      -4.28340000       0.42680000
H       -2.66290000      -4.22780000       2.22620000
