21
Properties=species:S:1:pos:R:3 gdb_114596=T pbc="F F F"
C        0.15750000       1.66580000       0.08250000
C       -0.10310000       0.15860000      -0.00560000
C        0.63360000      -0.50540000      -1.16600000
C        2.19720000      -0.63350000      -1.11460000
C        2.08220000      -2.14420000      -1.33820000
C        1.27760000      -2.79150000      -0.27390000
C        0.52010000      -2.02940000      -1.33920000
C       -0.36580000      -2.72820000      -2.28000000
O       -0.39340000      -3.92680000      -2.45080000
H        1.22360000       1.87800000       0.21840000
H       -0.16680000       2.17750000      -0.83050000
H       -0.37970000       2.11360000       0.92390000
H        0.18640000      -0.31930000       0.93850000
H       -1.17980000      -0.02380000      -0.12040000
H        0.34320000      -0.01460000      -2.10300000
H        2.69780000      -0.10310000      -1.92630000
H        2.66900000      -0.34700000      -0.16830000
H        2.65840000      -2.72460000      -2.04820000
H        1.15830000      -3.86610000      -0.35990000
H        1.29800000      -2.40670000       0.74230000
H       -1.02390000      -2.05220000      -2.87480000
