18
Properties=species:S:1:pos:R:3 gdb_65997=T pbc="F F F"
N        0.20120000       1.59890000      -0.75470000
C       -0.01680000       0.24720000      -0.28980000
C        0.90320000      -0.92430000      -0.83140000
N        1.44050000      -1.02970000       0.52770000
C        0.65830000      -0.05380000       1.08580000
O        0.53420000       0.36710000       2.20700000
C       -1.49800000      -0.06310000      -0.31970000
C       -2.14750000      -0.93440000       0.69310000
N       -2.39070000       0.51710000       0.68670000
H        1.18910000       1.81400000      -0.84150000
H       -0.23320000       1.74850000      -1.66010000
H        0.37220000      -1.81790000      -1.17500000
H        1.63900000      -0.61370000      -1.58050000
H        2.03870000      -1.71840000       0.95940000
H       -1.91500000      -0.05730000      -1.32860000
H       -2.99790000      -1.54600000       0.40460000
H       -1.53890000      -1.35110000       1.49010000
H       -1.82520000       0.95470000       1.41310000
