19
Properties=species:S:1:pos:R:3 gdb_23072=T pbc="F F F"
C       -1.15970000       0.91820000      -0.05110000
C       -0.12130000      -0.18900000      -0.01530000
C        1.06290000      -0.13250000      -1.02310000
C        2.00760000      -0.26540000       0.19980000
N        0.82390000      -0.26890000       1.16490000
C        1.27590000       1.04810000       1.73350000
C        2.48820000       1.01800000       0.82580000
N        3.54080000       1.69450000       0.64270000
O        3.56220000       2.82310000       1.48310000
H       -0.71270000       1.91330000      -0.13550000
H       -1.81140000       0.77970000      -0.92030000
H       -1.78910000       0.89640000       0.84530000
H       -0.64150000      -1.15160000      -0.06980000
H        1.11470000      -0.95980000      -1.73360000
H        1.16550000       0.80720000      -1.57160000
H        2.68830000      -1.12040000       0.21640000
H        0.59820000       1.89720000       1.60330000
H        1.51390000       0.97000000       2.80010000
H        4.40720000       3.22760000       1.25930000
