14
Properties=species:S:1:pos:R:3 gdb_7720=T pbc="F F F"
N       -0.06910000       1.26960000       0.29640000
C        0.03220000       0.05030000      -0.02520000
N       -1.11940000      -0.72380000      -0.17200000
C       -1.20540000      -2.10120000      -0.26580000
O       -2.26870000      -2.67620000      -0.28550000
C        0.15060000      -2.77880000      -0.33970000
C        1.17660000      -1.83300000      -0.94580000
O        1.20890000      -0.59080000      -0.22550000
H        0.85130000       1.70380000       0.32120000
H       -1.98760000      -0.21850000      -0.05650000
H        0.45090000      -3.06060000       0.67640000
H        0.04800000      -3.69540000      -0.92420000
H        2.19090000      -2.22930000      -0.87930000
H        0.95000000      -1.63300000      -2.00080000
