18
Properties=species:S:1:pos:R:3 gdb_15050=T pbc="F F F"
C       -0.07750000       1.45840000      -0.10550000
N       -0.16780000       0.05460000       0.29010000
C       -1.44880000      -0.57950000       0.00160000
C       -1.79740000      -0.54320000      -1.44510000
N       -2.01010000      -0.49780000      -2.58100000
C       -1.48300000      -2.01170000       0.50330000
C       -1.75700000      -2.27600000       1.95790000
C       -2.79150000      -2.63210000       0.91980000
H        0.92180000       1.83000000       0.13520000
H       -0.27140000       1.64180000      -1.17400000
H       -0.79960000       2.04380000       0.47460000
H        0.57530000      -0.47820000      -0.15110000
H       -2.22350000      -0.00590000       0.52810000
H       -0.77210000      -2.66560000       0.00550000
H       -1.21020000      -3.07720000       2.44150000
H       -1.94530000      -1.41960000       2.59640000
H       -3.68530000      -2.01990000       0.85900000
H       -2.95600000      -3.67730000       0.68500000
