13
Properties=species:S:1:pos:R:3 gdb_130230=T pbc="F F F"
N        0.07800000       1.36300000       0.09480000
C       -0.03810000       0.00110000      -0.01400000
N       -1.17190000      -0.54820000      -0.23950000
O       -1.13090000      -1.93720000      -0.53550000
C       -0.03910000      -2.70420000      -0.24470000
N       -0.06880000      -3.96200000      -0.34940000
C        1.21430000      -1.99960000       0.15860000
N        2.26820000      -2.59670000       0.48760000
O        1.16510000      -0.61280000       0.10890000
H        0.74090000       1.67920000       0.78850000
H       -0.81220000       1.83890000       0.12450000
H       -1.00000000      -4.26750000      -0.64130000
H        3.00900000      -1.92870000       0.70880000
