15
Properties=species:S:1:pos:R:3 gdb_48071=T pbc="F F F"
O       -0.71920000       1.49360000       0.57630000
C        0.18100000       1.16230000      -0.14640000
C        1.40500000       2.03930000      -0.44660000
O        2.39260000       1.51420000      -0.90390000
C        1.33670000       3.49760000      -0.10470000
C        1.12450000       4.17920000       1.28150000
C        1.03160000       5.23540000       0.15500000
C        2.29120000       4.63750000      -0.52050000
O        0.19260000       4.28570000      -0.62500000
H        0.25200000       0.16290000      -0.62580000
H        0.18360000       3.92400000       1.76530000
H        1.97800000       4.22110000       1.96190000
H        0.69740000       6.27070000       0.20170000
H        3.24670000       4.72070000       0.00080000
H        2.36800000       4.80370000      -1.59470000
