18
Properties=species:S:1:pos:R:3 gdb_71604=T pbc="F F F"
C        0.00100000       1.48860000      -0.09180000
C        0.00030000      -0.00840000      -0.02000000
N        0.63890000      -0.90040000      -1.06450000
C        0.05460000      -1.86270000      -0.06210000
C        0.57200000      -0.95360000       1.07610000
O       -0.28450000      -0.99720000       2.20270000
C       -1.59290000      -1.01280000       1.61150000
C       -1.22660000      -0.97380000       0.12880000
O       -2.21870000      -0.88560000      -0.83910000
H        1.01670000       1.86240000      -0.25280000
H       -0.63190000       1.84450000      -0.91170000
H       -0.37880000       1.91650000       0.84190000
H        0.03280000      -0.89810000      -1.89030000
H        0.13310000      -2.94610000      -0.16360000
H        1.62140000      -0.93100000       1.35670000
H       -2.13290000      -1.92260000       1.90720000
H       -2.17300000      -0.13820000       1.93060000
H       -2.75100000      -1.68840000      -0.81760000
