19
Properties=species:S:1:pos:R:3 gdb_106210=T pbc="F F F"
C        0.08030000       1.52700000       0.16960000
C       -0.01780000       0.02480000      -0.12470000
C       -1.43570000      -0.49870000      -0.11060000
C       -2.48610000      -0.01560000      -1.10050000
C       -3.59550000      -0.69230000      -0.79100000
C       -3.18880000      -1.56730000       0.37680000
C       -1.71730000      -2.03570000       0.12060000
O       -1.38230000      -1.93330000       1.54640000
C       -2.19110000      -0.74300000       1.25820000
H        1.12150000       1.86260000       0.15030000
H       -0.47390000       2.11960000      -0.56610000
H       -0.32750000       1.76330000       1.15810000
H        0.43410000      -0.18880000      -1.10220000
H        0.55510000      -0.53940000       0.61930000
H       -2.33010000       0.71780000      -1.88010000
H       -4.57280000      -0.65210000      -1.25120000
H       -3.88560000      -2.24860000       0.86130000
H       -1.34430000      -2.90320000      -0.43120000
H       -2.39340000      -0.05180000       2.08100000
