20
Properties=species:S:1:pos:R:3 gdb_38453=T pbc="F F F"
C        0.23310000       1.71670000      -0.07320000
C        1.71240000       1.32370000      -0.13800000
N        1.99870000       0.57790000       1.11420000
C        1.37890000      -0.12080000      -0.03660000
C       -0.12910000       0.19360000       0.02330000
C       -0.92050000      -0.36080000       1.21520000
C       -1.53370000      -1.66950000       0.66080000
O       -1.25170000      -1.70180000      -0.74360000
C       -0.91330000      -0.38770000      -1.15060000
H       -0.04770000       2.34180000       0.77820000
H       -0.13640000       2.16870000      -0.99830000
H        2.50840000       1.82150000      -0.67740000
H        2.99210000       0.34650000       1.10380000
H        1.84700000      -0.98980000      -0.48420000
H       -0.27870000      -0.51430000       2.08450000
H       -1.70710000       0.34400000       1.50390000
H       -1.09380000      -2.56880000       1.10420000
H       -2.61920000      -1.70840000       0.82810000
H       -1.81340000       0.22150000      -1.34780000
H       -0.33760000      -0.45770000      -2.07920000
