23
Properties=species:S:1:pos:R:3 gdb_97586=T pbc="F F F"
C       -0.15440000       1.62270000       0.10590000
C       -0.11050000       0.10120000      -0.12610000
C       -1.42690000      -0.52650000      -0.05780000
C       -2.52680000      -1.01640000      -0.00340000
C       -3.85230000      -1.63440000       0.09030000
C       -3.74470000      -3.17220000       0.14850000
C       -4.63090000      -1.08880000       1.28330000
C       -5.37060000       0.21630000       1.18360000
C       -6.13790000      -1.08260000       1.26250000
H        0.85160000       2.04910000       0.04530000
H       -0.78230000       2.11120000      -0.64420000
H       -0.56820000       1.85290000       1.09150000
H        0.34310000      -0.10560000      -1.10430000
H        0.55440000      -0.36140000       0.61490000
H       -4.41730000      -1.37210000      -0.81650000
H       -4.74240000      -3.62030000       0.18010000
H       -3.21240000      -3.56000000      -0.72410000
H       -3.19800000      -3.48470000       1.04350000
H       -4.16150000      -1.30270000       2.24000000
H       -5.37690000       0.87480000       2.04500000
H       -5.35200000       0.73570000       0.23080000
H       -6.63510000      -1.43000000       0.36200000
H       -6.67010000      -1.31620000       2.17800000
