18
Properties=species:S:1:pos:R:3 gdb_37832=T pbc="F F F"
C        0.00050000       1.48820000       0.09590000
C        1.45710000       2.00770000      -0.16680000
C        2.04290000       0.89070000      -0.99210000
N        1.83620000       0.60360000      -2.45870000
C        2.07120000      -0.75570000      -1.85970000
C        3.14490000      -0.20220000      -0.85980000
O        2.55350000      -0.81250000       0.32010000
C        1.39230000      -0.41290000      -0.49050000
C        0.06050000      -0.08470000       0.15210000
H       -0.42770000       1.91680000       1.00600000
H       -0.64920000       1.79670000      -0.73040000
H        1.47450000       2.99210000      -0.64080000
H        2.00790000       2.07370000       0.77730000
H        0.84560000       0.69950000      -2.70070000
H        2.08520000      -1.67860000      -2.44200000
H        4.23030000      -0.16240000      -0.94580000
H        0.07660000      -0.45030000       1.18240000
H       -0.79900000      -0.54240000      -0.34360000
