23
Properties=species:S:1:pos:R:3 gdb_72403=T pbc="F F F"
C       -0.10000000       1.45470000       0.02270000
C        0.03320000      -0.05190000       0.00040000
C        0.64630000      -0.66080000      -1.28810000
C        0.02950000      -2.08670000      -1.28370000
C       -0.83100000      -2.05010000       0.00670000
C       -2.02010000      -2.98470000       0.03640000
C        0.11570000      -2.11600000       1.23410000
C        0.73230000      -0.69010000       1.22970000
O       -1.26270000      -0.67730000       0.03740000
H        0.88770000       1.92610000      -0.00370000
H       -0.67020000       1.80580000      -0.84250000
H       -0.61270000       1.78430000       0.93130000
H        0.32480000      -0.09090000      -2.16400000
H        1.73960000      -0.65870000      -1.27130000
H       -0.60810000      -2.24710000      -2.15720000
H        0.77660000      -2.88480000      -1.26460000
H       -1.68730000      -4.02740000       0.01260000
H       -2.60840000      -2.83370000       0.94640000
H       -2.66920000      -2.81260000      -0.82720000
H       -0.46070000      -2.29750000       2.14510000
H        0.85920000      -2.91280000       1.14510000
H        1.82190000      -0.68660000       1.13840000
H        0.47160000      -0.14110000       2.13840000
