18
Properties=species:S:1:pos:R:3 gdb_125524=T pbc="F F F"
C        0.18190000       1.47300000      -0.03440000
C        0.03200000      -0.01300000       0.02350000
N        0.04850000      -0.76940000      -1.08160000
N       -0.10950000      -2.00970000      -0.62850000
N       -0.22840000      -2.12990000       0.68530000
C       -0.14120000      -0.87050000       1.12200000
C       -0.14610000      -3.13210000      -1.52400000
C        0.45200000      -4.44430000      -1.10020000
C       -1.04630000      -4.29760000      -1.22280000
H        1.06150000       1.80910000       0.52480000
H        0.29170000       1.79540000      -1.07180000
H       -0.68950000       1.98040000       0.39290000
H       -0.20520000      -0.64570000       2.17500000
H       -0.02920000      -2.78850000      -2.54250000
H        0.99070000      -5.01630000      -1.84700000
H        0.86140000      -4.48410000      -0.09800000
H       -1.61160000      -4.24190000      -0.30030000
H       -1.55770000      -4.76670000      -2.05550000
