23
Properties=species:S:1:pos:R:3 gdb_89517=T pbc="F F F"
C        0.24840000       1.64180000       0.04730000
C        0.08910000       0.12980000       0.02630000
C        0.96230000      -0.71170000      -0.95070000
C        1.32030000      -1.69630000       0.21300000
C        0.68170000      -3.07250000       0.10080000
C        2.79680000      -1.70700000       0.62570000
C        2.96700000      -0.34920000       1.31810000
O        1.71750000      -0.07180000       1.94780000
C        0.66800000      -0.69110000       1.21970000
H        1.28680000       1.92980000       0.23520000
H       -0.05840000       2.08000000      -0.90880000
H       -0.36280000       2.09350000       0.83590000
H       -0.96850000      -0.12790000      -0.10070000
H        0.43960000      -1.16040000      -1.79970000
H        1.82870000      -0.16420000      -1.33650000
H        1.14680000      -3.65960000      -0.69970000
H        0.78890000      -3.63530000       1.03500000
H       -0.38770000      -2.99980000      -0.12600000
H        2.98090000      -2.52030000       1.33680000
H        3.47800000      -1.83510000      -0.22130000
H        3.73980000      -0.34420000       2.09230000
H        3.21650000       0.43610000       0.58780000
H       -0.05870000      -1.06730000       1.94670000
