19
Properties=species:S:1:pos:R:3 gdb_88892=T pbc="F F F"
C        0.26110000       1.55710000      -0.28430000
C        0.10490000       0.07010000      -0.04750000
C        1.30880000      -0.83520000       0.07040000
C        0.42640000      -0.59950000       1.27060000
C        0.93660000       0.18040000       2.47760000
C        1.65460000      -0.66120000       3.42600000
C        2.24270000      -1.37230000       4.20920000
C        2.90450000      -2.17210000       5.08910000
C        3.49210000      -2.88110000       5.87070000
H        1.16680000       1.95620000       0.18170000
H        0.33180000       1.76930000      -1.35650000
H       -0.59290000       2.12020000       0.10900000
H       -0.75010000      -0.36020000      -0.56340000
H        1.29400000      -1.80820000      -0.40780000
H        2.28570000      -0.36020000       0.07360000
H       -0.22510000      -1.42280000       1.54890000
H        1.59620000       0.99460000       2.15430000
H        0.09410000       0.66210000       2.99340000
H        4.00800000      -3.50500000       6.55720000
