16
Properties=species:S:1:pos:R:3 gdb_5689=T pbc="F F F"
C        0.03080000       1.43570000       0.08670000
C        1.51020000       1.89780000      -0.11970000
C        2.19060000       0.57720000       0.04990000
C        1.30880000      -0.46220000      -0.07030000
N       -0.01280000      -0.00520000      -0.29580000
C        2.03980000      -1.67820000      -0.07870000
C        3.37230000      -1.31510000       0.02800000
N        3.46190000       0.05800000       0.07630000
H       -0.23160000       1.56760000       1.14660000
H       -0.67590000       2.01470000      -0.51400000
H        1.65650000       2.31820000      -1.12590000
H        1.78510000       2.67720000       0.59940000
H       -0.72000000      -0.50820000       0.22750000
H        1.66710000      -2.68800000      -0.14930000
H        4.25730000      -1.92710000       0.09980000
H        4.31500000       0.57300000       0.19980000
