21
Properties=species:S:1:pos:R:3 gdb_46052=T pbc="F F F"
O       -0.16850000      -0.01140000      -0.19400000
C       -0.08850000       1.17770000      -0.02600000
C       -1.26470000       2.12950000       0.23210000
C       -0.66660000       3.53790000       0.11040000
C        0.80830000       3.37310000       0.55780000
C        1.20120000       2.00420000      -0.02890000
C        1.70880000       4.51660000       0.15660000
C        1.80130000       5.75960000       1.00640000
C        2.97330000       4.81270000       0.92390000
H       -2.09780000       1.91340000      -0.44110000
H       -1.62150000       1.93470000       1.25230000
H       -0.69080000       3.86810000      -0.93590000
H       -1.19720000       4.29100000       0.69810000
H        0.82200000       3.29270000       1.65450000
H        2.00890000       1.48600000       0.49260000
H        1.51570000       2.11440000      -1.07700000
H        1.76150000       4.67480000      -0.91920000
H        1.87830000       6.72120000       0.51140000
H        1.23560000       5.78310000       1.93240000
H        3.19160000       4.20230000       1.79440000
H        3.85230000       5.12570000       0.37180000
