19
Properties=species:S:1:pos:R:3 gdb_66912=T pbc="F F F"
C        0.00260000       1.49910000       0.03530000
C       -0.03190000       0.00370000      -0.04190000
C       -0.93540000      -0.88690000       0.82350000
C       -1.09790000      -2.23640000       0.11900000
C        0.41660000      -2.12490000      -0.22890000
C        1.28900000      -3.31670000      -0.50320000
C        0.54460000      -1.05320000       0.94300000
C        0.46940000      -0.87930000      -1.13920000
O        0.99430000      -0.66350000      -2.19920000
H        0.94660000       1.88500000      -0.36140000
H       -0.81050000       1.94170000      -0.54990000
H       -0.10350000       1.84730000       1.06780000
H       -1.60960000      -0.41470000       1.52790000
H       -1.28650000      -3.03890000       0.83870000
H       -1.80020000      -2.31430000      -0.71920000
H        0.94250000      -3.83910000      -1.40150000
H        2.32590000      -3.01430000      -0.68060000
H        1.27280000      -4.02860000       0.32840000
H        1.27420000      -0.89420000       1.72270000
