20
Properties=species:S:1:pos:R:3 gdb_82487=T pbc="F F F"
C       -0.24580000       1.57870000      -0.05580000
C        0.01780000       0.08700000      -0.05890000
C        0.68360000      -0.57810000      -1.28050000
O        1.85560000       0.15650000      -1.70540000
C        2.67520000      -0.43930000      -0.65490000
C        4.06470000      -0.76350000      -1.12600000
C        2.39700000       0.26650000       0.68640000
N        1.09270000      -0.47140000       0.86250000
C        1.51590000      -1.40270000      -0.27970000
H        0.57610000       2.12840000      -0.52030000
H       -1.15820000       1.80190000      -0.61860000
H       -0.38370000       1.94330000       0.96770000
H       -0.89780000      -0.46270000       0.19420000
H        0.09020000      -0.93610000      -2.12580000
H        4.58990000       0.15590000      -1.40810000
H        4.63820000      -1.25650000      -0.33490000
H        4.03600000      -1.41820000      -2.00190000
H        3.08720000      -0.05460000       1.47470000
H        2.34120000       1.35780000       0.68220000
H        1.54560000      -2.48050000      -0.13190000
