17
Properties=species:S:1:pos:R:3 gdb_71924=T pbc="F F F"
O        0.20150000       1.40670000      -0.03790000
C        0.02250000       0.03820000      -0.00300000
C        0.54700000      -0.73550000      -1.24510000
C       -0.59790000      -1.77710000      -1.13130000
C       -0.39150000      -2.75560000       0.04470000
N       -0.79880000      -1.69180000       1.04230000
C       -1.30510000      -0.83630000      -0.10920000
C        0.27860000      -0.74550000       1.26020000
N        1.06650000      -0.54420000       2.22160000
H        0.29490000       1.71500000       0.87150000
H        0.38440000      -0.09630000      -2.11740000
H        1.58530000      -1.07900000      -1.23470000
H       -1.03510000      -2.15020000      -2.05680000
H       -1.12570000      -3.56560000       0.06280000
H        0.60830000      -3.17050000       0.20840000
H       -2.33410000      -0.48500000      -0.09740000
H        0.92820000      -1.24260000       2.95650000
