17
Properties=species:S:1:pos:R:3 gdb_45575=T pbc="F F F"
N       -0.01990000       0.68880000       1.03730000
C        0.00250000      -0.26640000       0.21140000
N        0.95900000      -0.93890000      -0.55400000
C        0.06850000      -2.05750000      -0.90140000
C        0.18210000      -3.30340000      -0.02230000
O       -0.00360000      -2.93260000       1.33390000
C       -1.30960000      -2.49160000       1.63320000
O       -1.95940000      -1.86510000       0.54370000
C       -1.10570000      -1.18800000      -0.33480000
H        0.91610000       1.05580000       1.22100000
H        1.94190000      -1.01470000      -0.32800000
H        0.05850000      -2.30790000      -1.96670000
H       -0.56070000      -4.04800000      -0.34760000
H        1.17410000      -3.76140000      -0.08460000
H       -1.96100000      -3.33420000       1.90640000
H       -1.20120000      -1.80030000       2.47750000
H       -1.73770000      -0.71500000      -1.08680000
