16
Properties=species:S:1:pos:R:3 gdb_11363=T pbc="F F F"
C        0.07060000       1.54880000       0.00810000
C       -0.04500000       0.02480000       0.00320000
C       -1.46040000      -0.46780000       0.01330000
N       -2.50910000       0.26600000       0.02420000
C       -3.65450000      -0.64430000       0.03050000
C       -3.08600000      -2.06970000       0.02180000
O       -3.64350000      -3.13870000       0.02240000
N       -1.71390000      -1.84410000       0.01090000
H        1.12200000       1.84870000       0.00010000
H       -0.42300000       1.97930000      -0.86600000
H       -0.40770000       1.97250000       0.89390000
H        0.45840000      -0.39860000      -0.87720000
H        0.47330000      -0.40540000       0.87140000
H       -4.28060000      -0.48750000       0.91600000
H       -4.29440000      -0.48220000      -0.84420000
H       -1.02710000      -2.58070000       0.00260000
