17
Properties=species:S:1:pos:R:3 gdb_98490=T pbc="F F F"
C       -0.26820000       1.57720000       0.30340000
C       -0.35270000       0.07790000       0.57780000
C        1.01140000      -0.56280000       0.76040000
O        2.05080000       0.02670000       0.59500000
C        1.03110000      -2.03680000       1.15910000
C        0.33690000      -2.42930000       2.41580000
O       -0.24550000      -2.70570000       1.15630000
C        2.16100000      -2.80600000       0.70760000
C        3.09810000      -3.44530000       0.31400000
H        0.34070000       1.77690000      -0.58150000
H       -1.26620000       1.99330000       0.14160000
H        0.19470000       2.10520000       1.14140000
H       -0.97740000      -0.13810000       1.45270000
H       -0.84690000      -0.45630000      -0.24490000
H        0.72240000      -3.28780000       2.96170000
H       -0.15720000      -1.66560000       3.01480000
H        3.92970000      -4.00670000      -0.03480000
