17
Properties=species:S:1:pos:R:3 gdb_34600=T pbc="F F F"
C        0.03590000      -1.26460000      -0.33960000
C       -0.04670000      -0.08070000      -0.13000000
C       -0.07620000       1.31960000       0.12700000
C       -1.21890000       2.01660000       0.03800000
C       -1.34520000       3.49280000       0.27320000
C       -0.10950000       4.13030000       0.86300000
O        0.33440000       3.60500000       2.11750000
C        1.14990000       3.38090000       0.96320000
C        1.25580000       1.95400000       0.48130000
H        0.08880000      -2.30860000      -0.52520000
H       -2.12920000       1.48930000      -0.23120000
H       -1.58290000       3.99840000      -0.67510000
H       -2.20400000       3.69210000       0.92980000
H       -0.06570000       5.21790000       0.79690000
H        2.08780000       3.93740000       0.96930000
H        1.75550000       1.34720000       1.24690000
H        1.91500000       1.92510000      -0.39700000
