19
Properties=species:S:1:pos:R:3 gdb_82787=T pbc="F F F"
O        0.09300000       1.45310000      -0.12890000
C        0.02160000       0.05470000       0.02920000
C        0.25320000      -0.58560000       1.43890000
C       -0.25570000       0.36010000       2.53470000
C       -1.76460000       0.23070000       2.42820000
C       -2.39200000       0.02040000       1.05890000
C       -2.15970000      -1.15410000       2.00950000
C       -0.95230000      -1.57040000       1.13310000
C       -1.38480000      -0.54890000       0.03290000
H        1.02010000       1.71050000      -0.15630000
H        0.63590000      -0.46070000      -0.72420000
H        1.24110000      -1.00650000       1.63500000
H        0.08060000       0.03930000       3.52780000
H        0.09570000       1.38250000       2.36590000
H       -2.39680000       0.74870000       3.14230000
H       -3.32050000       0.51480000       0.80000000
H       -2.85950000      -1.79820000       2.52640000
H       -0.74330000      -2.61480000       0.91590000
H       -1.84260000      -0.86290000      -0.90630000
