19
Properties=species:S:1:pos:R:3 gdb_50710=T pbc="F F F"
O       -0.92130000       1.09890000       0.05920000
C        0.22750000       0.74300000       0.04890000
C        1.42390000       1.69110000       0.06290000
C        1.14600000       2.94010000       0.90570000
C        2.18890000       4.02620000       0.81590000
C        3.51400000       3.87730000       0.84610000
C        4.28640000       2.58580000       0.98140000
C        3.79710000       1.41250000       0.12830000
O        2.52180000       0.91750000       0.49860000
H        0.52190000      -0.32860000       0.01250000
H        1.58180000       2.00160000      -0.98760000
H        0.17010000       3.32280000       0.59300000
H        1.02540000       2.62110000       1.95100000
H        1.79850000       5.03980000       0.75520000
H        4.11960000       4.78010000       0.80760000
H        5.33630000       2.76370000       0.72010000
H        4.28720000       2.26340000       2.03290000
H        3.79300000       1.69900000      -0.93550000
H        4.48340000       0.56800000       0.24920000
