17
Properties=species:S:1:pos:R:3 gdb_3566=T pbc="F F F"
C        0.01510000       1.46830000      -0.06530000
C        1.33400000       0.75740000       0.04720000
C        0.01340000      -0.02930000       0.05560000
C        0.41320000      -0.73290000      -1.26260000
C        0.01550000      -0.08940000      -2.62620000
C        1.36050000       0.71190000      -2.63480000
C        1.74990000       0.06350000      -1.27120000
H       -0.29140000       1.99230000       0.83500000
H       -0.29010000       1.97060000      -0.97780000
H        2.01070000       0.96470000       0.86820000
H       -0.48320000      -0.52110000       0.88420000
H        0.41100000      -1.82170000      -1.20540000
H       -0.05920000      -0.81580000      -3.43930000
H       -0.90090000       0.50710000      -2.62110000
H        2.02710000       0.42720000      -3.45260000
H        1.27220000       1.80180000      -2.63500000
H        2.70890000      -0.45260000      -1.22010000
