20
Properties=species:S:1:pos:R:3 gdb_10863=T pbc="F F F"
C       -0.09880000       1.53280000       0.04210000
C       -0.00200000       0.01740000      -0.00780000
C        0.71020000      -0.49470000      -1.26040000
O        0.89630000      -1.90120000      -1.21680000
C        1.56280000      -2.35640000      -0.03580000
C        3.05290000      -2.00230000      -0.03050000
C        0.82130000      -1.82400000       1.19420000
O        0.71430000      -0.41040000       1.14930000
H        0.89860000       1.98270000       0.01710000
H       -0.67410000       1.91200000      -0.80800000
H       -0.59220000       1.84930000       0.96470000
H       -1.01200000      -0.42820000       0.01860000
H        0.10980000      -0.29600000      -2.15400000
H        1.67130000       0.03150000      -1.37130000
H        1.45370000      -3.44670000      -0.06690000
H        3.21240000      -0.93800000       0.15950000
H        3.56820000      -2.56200000       0.75690000
H        3.50530000      -2.26350000      -0.99100000
H       -0.18250000      -2.27710000       1.23720000
H        1.35630000      -2.07240000       2.11620000
