15
Properties=species:S:1:pos:R:3 gdb_132356=T pbc="F F F"
C        0.00920000       1.47410000       0.06940000
C        0.01850000      -0.02870000      -0.00980000
C       -0.11920000      -0.69440000      -1.22320000
C       -0.09880000      -2.08630000      -1.19920000
F       -0.22800000      -2.75540000      -2.34270000
C        0.05190000      -2.78660000      -0.02040000
C        0.18110000      -2.00910000       1.13500000
O        0.33110000      -2.64240000       2.31550000
N        0.16690000      -0.68300000       1.15510000
H        0.94390000       1.83620000       0.50940000
H       -0.11530000       1.93060000      -0.91490000
H       -0.80260000       1.81440000       0.72020000
H       -0.23850000      -0.16500000      -2.15920000
H        0.06930000      -3.86690000       0.01190000
H        0.40240000      -1.94330000       2.98060000
