17
Properties=species:S:1:pos:R:3 gdb_80606=T pbc="F F F"
O       -0.16230000       1.44360000       0.08830000
C       -0.13600000       0.04210000       0.05260000
C       -1.52080000      -0.60680000      -0.21230000
C       -1.69260000      -0.36000000      -1.74720000
C       -0.45810000      -1.31570000      -1.89360000
C        0.65460000      -0.50710000      -1.21570000
O        1.07860000       0.56150000      -2.05800000
C       -1.07990000      -2.00790000      -0.65760000
O       -1.26430000      -3.13540000      -0.30910000
H        0.16700000       1.73460000      -0.77540000
H        0.29480000      -0.31930000       0.99250000
H       -2.30600000      -0.42830000       0.51810000
H       -2.60910000      -0.78770000      -2.15420000
H       -1.55830000       0.66670000      -2.08770000
H       -0.21360000      -1.84510000      -2.81140000
H        1.50930000      -1.13090000      -0.93710000
H        1.98810000       0.78230000      -1.83490000
