14
Properties=species:S:1:pos:R:3 gdb_69238=T pbc="F F F"
O        0.08600000       1.38130000      -0.09270000
C       -0.00170000       0.00990000      -0.03130000
C       -0.42650000      -0.79800000      -1.21920000
C       -1.29430000      -0.78790000       0.04020000
C       -1.01780000      -1.91600000       0.96920000
O       -1.73320000      -2.75220000       1.41740000
O        0.35070000      -1.87930000       1.31590000
C        0.90900000      -0.68800000       0.91760000
N        1.99030000      -0.19140000       1.32630000
H        0.88600000       1.61610000       0.40030000
H       -0.82290000      -0.21150000      -2.04010000
H        0.09950000      -1.70320000      -1.50220000
H       -2.28720000      -0.36220000       0.01240000
H        2.45600000      -0.78080000       2.01590000
