24
Properties=species:S:1:pos:R:3 gdb_57388=T pbc="F F F"
C       -0.08470000       1.52840000      -0.06750000
C       -0.00480000      -0.01030000       0.01060000
C        0.80960000      -0.39270000       1.25960000
C       -1.42430000      -0.60320000       0.11130000
C        0.64850000      -0.55360000      -1.25370000
C        1.59670000      -1.68840000      -1.31250000
N        2.11630000      -0.33560000      -1.60520000
C        1.69530000      -0.06240000      -3.02280000
C        0.19170000      -0.22750000      -2.68540000
H        0.91350000       1.96020000      -0.18780000
H       -0.70620000       1.86520000      -0.90290000
H       -0.52480000       1.93430000       0.84940000
H        0.39600000       0.10230000       2.14420000
H        0.78610000      -1.47070000       1.44570000
H        1.85370000      -0.08240000       1.15360000
H       -2.03390000      -0.33300000      -0.75780000
H       -1.39250000      -1.69620000       0.17360000
H       -1.93590000      -0.22950000       1.00470000
H        1.98150000      -2.09550000      -0.38480000
H        1.53090000      -2.41000000      -2.12600000
H        1.97340000       0.95480000      -3.30620000
H        2.12690000      -0.76270000      -3.74630000
H       -0.36640000      -1.01370000      -3.20240000
H       -0.36440000       0.70650000      -2.77390000
