16
Properties=species:S:1:pos:R:3 gdb_57029=T pbc="F F F"
N        0.15050000       1.51470000       0.05730000
C       -0.00540000       0.06590000      -0.03950000
C        0.51830000      -0.51460000      -1.30060000
N        0.91680000      -0.94360000      -2.29790000
C        0.67490000      -0.56370000       1.18370000
C        0.94490000      -2.09650000       1.23060000
N        2.37370000      -1.77050000       1.34010000
C        2.22040000      -0.41710000       1.20330000
O        2.98820000       0.50390000       1.09640000
H        1.14080000       1.74220000       0.11710000
H       -0.22630000       1.97190000      -0.76640000
H       -1.07690000      -0.16960000      -0.01150000
H        0.20060000      -0.16080000       2.08010000
H        0.53620000      -2.61880000       2.09970000
H        0.68400000      -2.63280000       0.31350000
H        3.19730000      -2.35020000       1.27100000
