13
Properties=species:S:1:pos:R:3 gdb_4713=T pbc="F F F"
N        0.13420000       1.39850000       0.14650000
C       -0.01350000       0.02040000       0.03050000
C       -1.13040000      -0.80470000      -0.01970000
N       -0.75990000      -2.11100000      -0.04120000
C        0.56140000      -2.12200000      -0.01150000
N        1.05350000      -0.82530000       0.03690000
C        1.46580000      -3.26240000      -0.03710000
O        1.14260000      -4.42690000      -0.06580000
H        0.77210000       1.80600000      -0.52750000
H       -0.75480000       1.87830000       0.10060000
H       -2.16670000      -0.50080000      -0.04340000
H        2.01950000      -0.55500000       0.13160000
H        2.54240000      -2.96080000      -0.02490000
