25
Properties=species:S:1:pos:R:3 gdb_122362=T pbc="F F F"
C        0.13650000       1.60320000      -0.09020000
C        0.24190000       0.07710000      -0.15240000
C        0.79220000      -0.54350000       1.13600000
C        0.89810000      -2.07390000       1.08260000
C        1.50850000      -2.66310000       2.34790000
C        0.70710000      -2.79290000       3.68900000
C       -0.04660000      -4.00840000       3.07320000
C        1.44770000      -4.19200000       2.67380000
C        1.79710000      -3.80760000       4.14070000
H        1.11590000       2.06120000       0.08880000
H       -0.25770000       2.01640000      -1.02400000
H       -0.52790000       1.92130000       0.72100000
H       -0.74700000      -0.35000000      -0.36610000
H        0.88360000      -0.21270000      -0.99530000
H        1.78280000      -0.11690000       1.34840000
H        0.15280000      -0.25260000       1.98080000
H       -0.09250000      -2.49520000       0.87850000
H        1.52820000      -2.35980000       0.22830000
H        2.51000000      -2.23710000       2.49440000
H        0.27830000      -1.98480000       4.28470000
H       -0.44690000      -4.73600000       3.78500000
H       -0.76710000      -3.81340000       2.27780000
H        1.87830000      -5.00620000       2.08740000
H        2.79930000      -3.40760000       4.32020000
H        1.50520000      -4.52300000       4.91430000
