12
Properties=species:S:1:pos:R:3 gdb_42263=T pbc="F F F"
O       -0.30400000       0.02640000      -0.34630000
C       -0.23440000       1.18340000      -0.02700000
C        1.01860000       1.95430000      -0.10910000
N        2.00460000       2.54900000      -0.20420000
N       -1.26330000       1.92210000       0.53530000
C       -1.79880000       3.18670000       0.09030000
C       -2.64440000       1.92840000       0.10080000
C       -3.01650000       1.32810000      -1.15970000
N       -3.34930000       0.86750000      -2.16550000
H       -1.96320000       3.93270000       0.86120000
H       -1.48370000       3.56220000      -0.87920000
H       -3.37430000       1.79590000       0.89440000
