21
Properties=species:S:1:pos:R:3 gdb_50073=T pbc="F F F"
O       -0.12800000       0.06010000      -0.63430000
C       -0.03720000       1.17180000      -0.17220000
C        1.23300000       1.91280000      -0.02420000
C        1.21850000       3.43310000      -0.14530000
C        1.49290000       2.82030000       1.18680000
C        0.53400000       2.94530000       2.34090000
C        0.58350000       1.89490000       3.48940000
C        0.34720000       3.04790000       4.50150000
C        0.80660000       4.04850000       3.40740000
H       -0.94500000       1.72400000       0.16450000
H        2.09000000       1.38320000      -0.42610000
H        2.02450000       3.89130000      -0.70680000
H        0.24840000       3.89930000      -0.29220000
H        2.53680000       2.80850000       1.49370000
H       -0.49370000       3.04390000       1.97680000
H       -0.13690000       1.07400000       3.45960000
H        1.58780000       1.47050000       3.59040000
H       -0.71380000       3.16710000       4.73910000
H        0.91020000       3.02570000       5.43690000
H        1.87770000       4.26390000       3.48410000
H        0.26940000       4.99500000       3.31050000
