15
Properties=species:S:1:pos:R:3 gdb_77845=T pbc="F F F"
C       -0.19240000       1.62450000      -0.01040000
C        0.04700000       0.12070000      -0.03710000
C        0.75700000      -0.60190000      -1.18790000
C        2.22440000      -0.40270000      -1.23220000
C        2.89830000       0.80620000      -0.82050000
N        3.46760000       1.76720000      -0.52130000
N        1.66770000      -1.37610000      -0.23970000
C        1.10840000      -0.55390000       0.85410000
O        1.39040000      -0.56530000       2.00520000
H        0.71880000       2.19090000      -0.20870000
H       -0.94560000       1.90540000      -0.75270000
H       -0.56480000       1.91800000       0.97530000
H       -0.89360000      -0.40870000       0.16280000
H        0.25830000      -1.12100000      -1.99800000
H        2.74990000      -0.92180000      -2.02920000
