15
Properties=species:S:1:pos:R:3 gdb_8742=T pbc="F F F"
N        0.06650000       1.57540000      -0.01380000
C        0.04840000       0.10740000      -0.00710000
C        0.61800000      -0.50070000      -1.21380000
C        1.14010000      -0.97300000      -2.18950000
C        0.82820000      -0.41310000       1.25170000
N        2.19830000       0.06770000       1.37590000
C        0.07030000      -0.06420000       2.46340000
N       -0.55210000       0.19060000       3.40210000
H        0.88910000       1.90630000      -0.50720000
H       -0.73440000       1.93130000      -0.52370000
H       -0.99380000      -0.21390000       0.10090000
H        1.57260000      -1.39400000      -3.06390000
H        0.85860000      -1.50730000       1.19050000
H        2.72170000      -0.20170000       0.54760000
H        2.19690000       1.08220000       1.43190000
