13
Properties=species:S:1:pos:R:3 gdb_29022=T pbc="F F F"
O        0.54050000       1.20980000       0.32110000
C        0.26410000      -0.08590000       0.17140000
N        0.30770000      -0.58620000      -1.06080000
C        0.03010000      -1.88140000      -1.19960000
C       -0.29320000      -2.68740000      -0.10970000
N       -0.33660000      -2.18680000       1.12180000
C       -0.06260000      -0.89080000       1.28990000
C       -0.13230000      -0.40840000       2.69490000
O        0.07690000       0.71880000       3.06840000
H        0.73190000       1.55210000      -0.56550000
H        0.06670000      -2.28650000      -2.20740000
H       -0.51780000      -3.74190000      -0.23440000
H       -0.40870000      -1.23090000       3.38880000
