18
Properties=species:S:1:pos:R:3 gdb_80448=T pbc="F F F"
C        0.11130000       1.42890000      -0.08910000
C        0.00440000      -0.05250000       0.00410000
N       -1.06590000      -0.75140000      -0.04620000
C       -0.66710000      -2.14260000       0.03250000
C       -1.59950000      -3.08080000       0.74980000
C        0.20070000      -2.58200000      -1.13360000
O        0.29050000      -1.83320000      -2.30130000
C        0.86250000      -2.09140000       0.13360000
O        1.18310000      -0.71460000       0.16290000
H        0.64630000       1.71280000      -1.00100000
H       -0.88580000       1.86770000      -0.10240000
H        0.67980000       1.82210000       0.75900000
H       -2.57210000      -3.11150000       0.24810000
H       -1.19370000      -4.09660000       0.77030000
H       -1.76220000      -2.75470000       1.78200000
H        0.25720000      -3.65860000      -1.28740000
H       -0.53820000      -1.34940000      -2.40150000
H        1.51670000      -2.69840000       0.74660000
