21
Properties=species:S:1:pos:R:3 gdb_61050=T pbc="F F F"
C        0.01920000       1.39000000       0.24840000
C       -0.03220000      -0.13010000       0.08980000
C       -1.45590000      -0.65530000       0.07570000
O       -2.44500000       0.03540000       0.07750000
C        0.70260000      -0.60500000      -1.17490000
C        2.24390000      -0.40690000      -1.26650000
C        2.34500000      -1.80330000      -1.93820000
C        0.92020000      -2.12860000      -1.41230000
O        0.91700000      -2.80030000      -0.16270000
H        1.05380000       1.74240000       0.29090000
H       -0.48120000       1.88610000      -0.58850000
H       -0.49060000       1.70380000       1.16270000
H        0.45780000      -0.62240000       0.94170000
H       -1.53080000      -1.76440000       0.05870000
H        0.21890000      -0.17370000      -2.05900000
H        2.60710000       0.45240000      -1.83340000
H        2.70570000      -0.39610000      -0.27560000
H        2.37240000      -1.74160000      -3.02970000
H        3.14320000      -2.47020000      -1.60150000
H        0.23470000      -2.61820000      -2.11660000
H        1.23390000      -3.69800000      -0.30410000
