14
Properties=species:S:1:pos:R:3 gdb_48095=T pbc="F F F"
N        0.06820000       0.88300000       0.83260000
C       -0.03220000      -0.17690000       0.17880000
C       -1.11490000      -1.22230000      -0.00030000
C       -0.07340000      -1.87230000      -0.95370000
O        0.86360000      -0.80400000      -0.67380000
C        0.44720000      -3.22840000      -0.52820000
O        1.44450000      -3.40940000       0.12330000
C       -0.40970000      -4.42800000      -0.95170000
O       -1.43240000      -4.30960000      -1.57470000
H        0.97650000       1.32880000       0.69540000
H       -1.35720000      -1.78670000       0.90160000
H       -2.03180000      -0.87340000      -0.47460000
H       -0.36890000      -1.88610000      -2.00580000
H        0.00350000      -5.40250000      -0.61900000
