21
Properties=species:S:1:pos:R:3 gdb_61214=T pbc="F F F"
C        0.36230000       1.70740000      -0.10490000
C        0.11780000       0.20070000       0.04120000
C        0.54390000      -0.58630000      -1.22620000
C       -0.23390000      -0.23180000      -2.40640000
C       -0.89170000       0.07340000      -3.36560000
C        0.78700000      -0.38630000       1.28100000
C        2.29190000      -0.27260000       1.41180000
C       -0.02210000      -0.54830000       2.49920000
O        0.25880000      -1.67030000       1.65820000
H        1.42140000       1.92980000      -0.27430000
H       -0.19800000       2.09990000      -0.95740000
H        0.04410000       2.24730000       0.79260000
H       -0.95820000       0.03410000       0.16430000
H        1.60830000      -0.41420000      -1.43230000
H        0.43190000      -1.65780000      -1.02200000
H       -1.46530000       0.33110000      -4.22100000
H        2.60890000       0.77340000       1.46600000
H        2.62650000      -0.78270000       2.31810000
H        2.80170000      -0.73510000       0.56070000
H        0.46500000      -0.56240000       3.47380000
H       -1.06060000      -0.21880000       2.50830000
