10
Properties=species:S:1:pos:R:3 gdb_133402=T pbc="F F F"
F        0.04760000       0.04150000       0.00320000
C       -0.04730000       1.34320000       0.01100000
C       -1.22710000       2.00440000       0.03050000
F       -2.36930000       1.33770000       0.04320000
C       -1.21570000       3.45100000       0.03710000
O       -2.18980000       4.17870000       0.05550000
C        0.17700000       3.96940000       0.02130000
N        1.27570000       3.30470000       0.00280000
O        1.15690000       1.91060000      -0.00280000
H        0.30840000       5.04810000       0.02530000
