21
Properties=species:S:1:pos:R:3 gdb_81656=T pbc="F F F"
O        0.01580000       1.33770000       0.12950000
C        0.00240000      -0.07070000       0.00220000
C       -1.46630000      -0.53880000      -0.14600000
C       -1.27680000      -0.46250000      -1.68970000
C        0.26240000      -0.57670000      -1.46140000
C        0.79720000      -1.98070000      -1.47700000
C        0.18200000      -3.06280000      -0.99250000
C       -1.21410000      -3.14190000      -0.41480000
C       -1.72820000      -1.94500000       0.41710000
H        0.92510000       1.63660000       0.02490000
H        0.60190000      -0.55400000       0.78640000
H       -2.17630000       0.17190000       0.28490000
H       -1.74680000      -1.22820000      -2.30970000
H       -1.54450000       0.52350000      -2.07320000
H        0.88890000       0.08530000      -2.06560000
H        1.79810000      -2.10540000      -1.88420000
H        0.70680000      -4.01370000      -1.05820000
H       -1.91550000      -3.32390000      -1.24200000
H       -1.28450000      -4.03950000       0.21020000
H       -1.29460000      -1.99430000       1.42430000
H       -2.80850000      -2.08060000       0.54590000
