23
Properties=species:S:1:pos:R:3 gdb_96244=T pbc="F F F"
C        0.01140000       1.57300000       0.01940000
C        0.01810000       0.02750000       0.01990000
C        0.57110000      -0.48970000      -1.32310000
C        0.14670000      -1.91070000      -1.72030000
C        0.49660000      -2.99030000      -0.67490000
C        1.94880000      -2.97020000      -0.29540000
C        2.47120000      -2.17870000       0.64950000
C        1.73580000      -1.26400000       1.52840000
C        0.71230000      -0.43040000       1.28750000
H        1.02780000       1.96380000      -0.10040000
H       -0.59960000       1.95820000      -0.80310000
H       -0.39090000       1.97340000       0.95550000
H       -1.03570000      -0.28650000       0.10030000
H        0.22690000       0.19020000      -2.11190000
H        1.66330000      -0.41320000      -1.31400000
H       -0.93570000      -1.93460000      -1.90120000
H        0.62310000      -2.16150000      -2.67640000
H       -0.11040000      -2.82190000       0.22250000
H        0.22100000      -3.97430000      -1.07050000
H        2.61670000      -3.62810000      -0.84760000
H        3.53440000      -2.27040000       0.86720000
H        2.08830000      -1.28320000       2.56070000
H        0.32540000       0.08960000       2.16480000
