17
Properties=species:S:1:pos:R:3 gdb_13684=T pbc="F F F"
C        0.13120000       1.34320000      -0.49550000
C       -0.14710000       0.07590000       0.27180000
O        0.89370000      -0.90760000       0.33700000
C        0.45680000      -0.29690000       1.56190000
C        1.48970000       0.51850000       2.30170000
N        2.51150000      -0.34780000       2.86750000
C        2.79730000      -0.39200000       4.19600000
O        2.27230000       0.29250000       5.04880000
H        1.12740000       1.73960000      -0.29130000
H        0.06080000       1.14990000      -1.57090000
H       -0.60990000       2.10970000      -0.24500000
H       -1.13000000      -0.35580000       0.07020000
H       -0.11040000      -0.97210000       2.20560000
H        1.95000000       1.25750000       1.63880000
H        1.03240000       1.04810000       3.14160000
H        2.98670000      -0.98250000       2.24480000
H        3.58520000      -1.13800000       4.41960000
