16
Properties=species:S:1:pos:R:3 gdb_57579=T pbc="F F F"
C        0.01200000       1.61880000      -0.02390000
C        0.00480000       0.08020000      -0.06860000
C        0.64280000      -0.52870000       1.21040000
C       -1.44510000      -0.45650000      -0.13610000
O       -2.41870000       0.23110000      -0.01260000
C        0.70140000      -0.41820000      -1.24870000
C        1.25240000      -0.84810000      -2.23550000
C        1.88570000      -1.32710000      -3.34610000
N        2.42500000      -1.73660000      -4.29000000
H        1.03550000       1.99110000       0.06150000
H       -0.44190000       2.03750000      -0.92410000
H       -0.56750000       1.95970000       0.83680000
H        0.11950000      -0.15450000       2.09490000
H        0.58690000      -1.62070000       1.20240000
H        1.69480000      -0.24090000       1.27550000
H       -1.51040000      -1.55590000      -0.28360000
