19
Properties=species:S:1:pos:R:3 gdb_7990=T pbc="F F F"
C       -0.68440000       1.34830000       0.02580000
C        0.17160000       0.08500000      -0.00330000
C        1.19690000       0.04950000      -1.16100000
N        2.26780000      -0.78290000      -0.64740000
C        3.35980000      -1.24550000      -1.46930000
C        2.26870000      -0.90740000       0.71960000
O        3.10480000      -1.49540000       1.37460000
C        1.04740000      -0.14810000       1.23970000
H       -0.06280000       2.24110000       0.15800000
H       -1.24970000       1.46830000      -0.90500000
H       -1.40420000       1.31760000       0.84970000
H       -0.48440000      -0.78570000      -0.12240000
H        0.77430000      -0.37500000      -2.07960000
H        1.56130000       1.06090000      -1.40680000
H        3.90720000      -0.40680000      -1.92040000
H        4.03820000      -1.81040000      -0.82750000
H        2.99880000      -1.89280000      -2.27760000
H        1.39900000       0.79930000       1.66890000
H        0.55730000      -0.70500000       2.04040000
