17
Properties=species:S:1:pos:R:3 gdb_31845=T pbc="F F F"
C        0.07200000       1.40390000       0.02810000
O        0.00480000      -0.00590000       0.03910000
C       -1.23090000      -0.58700000       0.01380000
C       -2.43910000       0.10690000      -0.02160000
C       -3.64680000      -0.59600000      -0.04500000
C       -3.65950000      -1.98600000      -0.03350000
O       -4.81080000      -2.72430000      -0.05520000
C       -2.44650000      -2.68030000       0.00210000
C       -1.24840000      -1.98710000       0.02540000
H        1.13280000       1.66010000       0.05150000
H       -0.37920000       1.82690000      -0.87980000
H       -0.42240000       1.84290000       0.90540000
H       -2.46310000       1.18870000      -0.03140000
H       -4.58300000      -0.04410000      -0.07260000
H       -5.56460000      -2.12650000      -0.07880000
H       -2.46280000      -3.76420000       0.01090000
H       -0.30140000      -2.51400000       0.05300000
