18
Properties=species:S:1:pos:R:3 gdb_11295=T pbc="F F F"
C       -0.43230000       1.41640000       0.31360000
N        0.09320000       0.09200000      -0.01900000
C       -0.94200000      -0.85490000      -0.43770000
C       -1.55460000      -1.43890000       0.86140000
C       -0.36340000      -1.40110000       1.86880000
C        0.74640000      -0.57580000       1.09870000
C       -0.72400000      -0.80660000       3.15040000
N       -1.00260000      -0.32190000       4.16330000
H        0.39360000       2.06500000       0.61890000
H       -0.88840000       1.85460000      -0.57900000
H       -1.18400000       1.42540000       1.12130000
H       -1.68080000      -0.36860000      -1.07860000
H       -0.47110000      -1.65710000      -1.02000000
H       -2.37370000      -0.81320000       1.22160000
H       -1.94530000      -2.45010000       0.73100000
H        0.00730000      -2.41030000       2.06990000
H        1.48420000      -1.28850000       0.71370000
H        1.26540000       0.13600000       1.74210000
