20
Properties=species:S:1:pos:R:3 gdb_63992=T pbc="F F F"
C       -0.52080000       1.57860000      -0.12530000
C        0.07690000       0.17280000      -0.00290000
C       -1.04770000      -0.87500000       0.06150000
C        1.03210000      -0.16990000      -1.19060000
C        2.15050000      -0.94700000      -0.55810000
C        2.13010000      -0.84430000       0.77780000
C        0.98650000       0.02930000       1.25790000
C        3.07210000      -1.43160000       1.66560000
N        3.82130000      -1.89700000       2.41710000
H        0.26310000       2.34200000      -0.17270000
H       -1.13210000       1.66900000      -1.03000000
H       -1.16300000       1.81020000       0.73140000
H       -1.66640000      -0.84190000      -0.84180000
H       -0.64000000      -1.88720000       0.15420000
H       -1.70100000      -0.69550000       0.92200000
H        0.52400000      -0.73180000      -1.98310000
H        1.42910000       0.73820000      -1.66690000
H        2.89570000      -1.49550000      -1.12220000
H        1.37200000       0.99990000       1.59570000
H        0.45260000      -0.40890000       2.10750000
