17
Properties=species:S:1:pos:R:3 gdb_42661=T pbc="F F F"
O       -0.03760000       0.04520000      -0.08960000
C       -0.05620000       1.24750000       0.00170000
C       -1.24100000       2.13850000       0.11910000
C       -0.72830000       3.42460000       0.81360000
C        0.75890000       3.22350000       1.10170000
C        1.15540000       2.19490000       0.02460000
C        1.18060000       2.89730000      -1.34650000
O       -0.03940000       3.59760000      -1.60260000
C       -1.03860000       3.45510000      -0.63790000
H       -2.23110000       1.72550000       0.26070000
H       -1.35620000       3.95310000       1.52150000
H        1.32710000       4.15680000       1.02350000
H        0.90860000       2.81650000       2.10670000
H        2.09150000       1.66560000       0.20250000
H        2.00310000       3.62310000      -1.37780000
H        1.33640000       2.17000000      -2.15380000
H       -1.94100000       3.95360000      -0.97220000
