17
Properties=species:S:1:pos:R:3 gdb_130392=T pbc="F F F"
N        0.16250000       1.38060000       0.31680000
C        0.01690000      -0.03110000      -0.06260000
C       -1.42200000      -0.42700000      -0.12680000
C       -2.28630000      -0.64460000      -1.16030000
C       -2.05790000      -0.55550000      -2.63200000
O       -2.43090000      -1.79700000      -3.21980000
C       -3.49870000      -0.99280000      -0.49790000
N       -3.37720000      -0.98110000       0.80370000
O       -2.05610000      -0.61570000       1.04480000
H        1.14840000       1.60380000       0.41440000
H       -0.19780000       1.97490000      -0.42390000
H        0.48290000      -0.29930000      -1.02450000
H        0.50540000      -0.63590000       0.70940000
H       -2.65840000       0.26630000      -3.05420000
H       -1.00200000      -0.31500000      -2.83170000
H       -2.41420000      -1.68870000      -4.17600000
H       -4.44760000      -1.26180000      -0.93990000
