17
Properties=species:S:1:pos:R:3 gdb_82254=T pbc="F F F"
O        0.49450000       1.14400000      -0.52250000
C        0.10650000      -0.14520000      -0.08820000
C        0.62280000      -0.45830000       1.31220000
O        0.04560000       0.44750000       2.26440000
C       -0.47570000      -0.88680000       2.19310000
C       -1.76710000      -0.96840000       1.38980000
O       -2.70910000       0.08320000       1.67330000
C       -2.36490000       0.77420000       0.44870000
C       -1.42920000      -0.37190000       0.00290000
H        0.34100000       1.74180000       0.21930000
H        0.54130000      -0.84290000      -0.81180000
H        1.66600000      -0.71480000       1.47980000
H       -0.31810000      -1.48930000       3.08390000
H       -2.22380000      -1.96240000       1.45220000
H       -3.24610000       0.93240000      -0.18250000
H       -1.88420000       1.73870000       0.64220000
H       -1.80520000      -0.92530000      -0.85710000
