15
Properties=species:S:1:pos:R:3 gdb_17604=T pbc="F F F"
N       -0.04540000       1.21460000      -0.01150000
C        0.06520000      -0.11870000      -0.20160000
O        1.11030000      -0.71810000      -0.37430000
C       -1.28960000      -0.83260000      -0.16670000
N       -2.32470000      -0.16170000       0.16650000
N       -1.25080000      -2.14470000      -0.59380000
C       -0.43920000      -3.19200000      -0.01460000
C       -1.93700000      -3.23890000       0.06420000
H        0.78810000       1.77410000       0.04020000
H       -0.95630000       1.60220000       0.17750000
H       -3.16670000      -0.74060000       0.15320000
H        0.09140000      -3.81990000      -0.72350000
H        0.10820000      -2.96200000       0.89350000
H       -2.39850000      -3.03230000       1.02820000
H       -2.49920000      -3.90560000      -0.58320000
