17
Properties=species:S:1:pos:R:3 gdb_26728=T pbc="F F F"
C       -0.01020000       1.52170000       0.10730000
C        0.03360000       0.03530000      -0.01920000
C       -0.00660000      -0.74180000      -1.14160000
C       -0.10440000      -0.40150000      -2.59070000
N        0.06690000      -2.06520000      -0.67150000
C        0.06350000      -3.24510000      -1.41130000
O        0.13060000      -4.34210000      -0.92210000
C        0.14690000      -1.98770000       0.71020000
N        0.12950000      -0.75990000       1.12640000
H        0.88930000       1.89410000       0.60920000
H       -0.08580000       2.01270000      -0.86590000
H       -0.86680000       1.83320000       0.71470000
H        0.76040000      -0.75690000      -3.16380000
H       -1.00440000      -0.81780000      -3.05920000
H       -0.14870000       0.68300000      -2.70770000
H       -0.00760000      -3.06130000      -2.49650000
H        0.21330000      -2.88210000       1.30920000
