19
Properties=species:S:1:pos:R:3 gdb_62816=T pbc="F F F"
C       -0.14470000       1.55380000      -0.02830000
C        0.01330000       0.03960000      -0.01540000
O       -1.25970000      -0.55650000      -0.16860000
C        1.21130000      -0.65900000      -0.75480000
C        2.14010000      -0.14790000       0.38210000
C        0.85510000      -0.66560000       1.11110000
C        0.94340000      -1.90240000       0.14510000
C        0.58240000      -0.65880000       2.51870000
C        0.34660000      -0.63890000       3.69850000
H        0.78990000       2.09960000       0.10030000
H       -0.57720000       1.87380000      -0.98540000
H       -0.83290000       1.85430000       0.76740000
H       -1.72910000      -0.08370000      -0.86270000
H        1.42010000      -0.65360000      -1.82500000
H        3.03450000      -0.74700000       0.56230000
H        2.36680000       0.91600000       0.44270000
H        0.02140000      -2.45230000      -0.02230000
H        1.79800000      -2.56020000       0.31630000
H        0.13770000      -0.62750000       4.73940000
