20
Properties=species:S:1:pos:R:3 gdb_83614=T pbc="F F F"
C       -0.65860000       1.25050000       0.24350000
C        0.03760000      -0.08030000       0.01140000
C        0.80920000      -0.25980000      -1.32730000
O        0.83730000      -1.61740000      -1.81550000
C        2.11030000      -1.88700000      -1.16850000
C        2.08220000      -0.52100000      -0.49050000
C        3.15510000       0.44970000      -0.01040000
C        2.18630000       0.77420000       1.16220000
N        1.30210000      -0.38590000       0.79420000
H       -0.05470000       2.10780000      -0.07040000
H       -1.58890000       1.27860000      -0.33320000
H       -0.91300000       1.38230000       1.30040000
H       -0.67510000      -0.89720000       0.16400000
H        0.67180000       0.47430000      -2.12840000
H        2.07060000      -2.75310000      -0.49860000
H        2.90990000      -2.02220000      -1.90950000
H        4.07030000      -0.05450000       0.31180000
H        3.42440000       1.26470000      -0.68610000
H        2.60100000       0.66960000       2.16860000
H        1.71240000       1.75670000       1.08930000
