18
Properties=species:S:1:pos:R:3 gdb_13763=T pbc="F F F"
C       -0.01270000       1.41960000      -0.25800000
C        0.05930000      -0.04360000       0.19970000
C        0.72120000      -0.18370000       1.57710000
C       -1.32910000      -0.65010000       0.21280000
N       -1.89710000      -1.05850000      -1.07070000
C       -1.59080000      -2.09990000      -0.06640000
C       -0.52330000      -3.01720000      -0.38670000
N        0.33210000      -3.76330000      -0.60760000
H        0.98850000       1.85710000      -0.31760000
H       -0.47810000       1.49670000      -1.24490000
H       -0.59780000       2.02570000       0.44450000
H        0.65080000      -0.60410000      -0.53360000
H        0.80430000      -1.23310000       1.87580000
H        1.72860000       0.24290000       1.56610000
H        0.14680000       0.34450000       2.34760000
H       -2.01000000      -0.20890000       0.94240000
H       -2.90200000      -0.90820000      -1.10300000
H       -2.41700000      -2.56730000       0.46270000
