22
Properties=species:S:1:pos:R:3 gdb_63914=T pbc="F F F"
C       -0.19190000       1.59960000       0.00890000
C       -0.00510000       0.07410000      -0.02240000
C       -1.37730000      -0.61170000       0.10100000
C        0.75180000      -0.43400000      -1.29240000
C        2.11050000      -0.89270000      -0.77100000
C        2.95740000       0.26730000      -0.19120000
C        2.36270000      -0.11250000       1.15580000
C        0.91100000      -0.42620000       1.09820000
N        1.86930000      -1.45390000       0.63870000
H        0.75720000       2.13090000      -0.09880000
H       -0.85640000       1.92770000      -0.79820000
H       -0.64310000       1.91630000       0.95600000
H       -2.00760000      -0.37610000      -0.76350000
H       -1.26790000      -1.69950000       0.15410000
H       -1.90830000      -0.28000000       1.00030000
H        0.21520000      -1.27650000      -1.74120000
H        0.85080000       0.34000000      -2.06050000
H        2.63180000      -1.59910000      -1.41680000
H        4.02530000       0.03800000      -0.22110000
H        2.80180000       1.27820000      -0.58100000
H        2.87870000      -0.03560000       2.10900000
H        0.44610000      -0.66260000       2.05260000
