17
Properties=species:S:1:pos:R:3 gdb_66865=T pbc="F F F"
C        0.08260000       1.55190000       0.00890000
C       -0.03620000       0.05810000      -0.00310000
C        1.00000000      -0.92060000      -0.54800000
N        0.49180000      -2.05460000      -1.24460000
C       -0.75710000      -2.06620000      -0.93510000
N       -1.10070000      -3.04780000       0.11150000
C       -0.87700000      -1.74380000       0.95820000
C        0.51350000      -1.01920000       0.93760000
C       -1.28270000      -0.79610000      -0.18420000
H        1.11260000       1.86450000       0.20750000
H       -0.21280000       1.97610000      -0.95760000
H       -0.55470000       1.99970000       0.77960000
H        2.02010000      -0.59730000      -0.72320000
H       -2.11670000      -3.17360000       0.17120000
H       -1.39480000      -1.76000000       1.91740000
H        1.21230000      -0.94040000       1.75900000
H       -2.29580000      -0.43510000      -0.33890000
