16
Properties=species:S:1:pos:R:3 gdb_46706=T pbc="F F F"
O        0.06230000      -0.05650000       0.27720000
C        0.00230000       1.09330000      -0.06270000
O       -1.15110000       1.59220000      -0.56440000
C       -1.28470000       3.00500000      -0.78350000
C       -0.00200000       3.70460000      -1.20490000
C        1.03630000       4.14500000      -0.24690000
C        1.06040000       3.25930000       0.99120000
C        1.16570000       2.05470000       0.00610000
N        1.28420000       2.97890000      -1.18980000
H       -2.03470000       3.09520000      -1.57180000
H       -1.70120000       3.45640000       0.12520000
H       -0.09650000       4.30890000      -2.10220000
H        1.56170000       5.08700000      -0.36300000
H        1.97110000       3.36720000       1.58060000
H        0.19930000       3.31070000       1.66470000
H        2.07380000       1.46750000       0.12340000
