14
Properties=species:S:1:pos:R:3 gdb_132462=T pbc="F F F"
O       -0.14520000       1.32370000       0.01080000
C        0.05850000      -0.01180000       0.00260000
C        1.26010000      -0.65400000      -0.00750000
C        1.24260000      -2.08410000      -0.01500000
C        0.07220000      -2.75970000      -0.01210000
F        0.03180000      -4.09900000      -0.01900000
C       -1.22360000      -2.10550000      -0.00150000
N       -2.39570000      -2.62490000       0.00230000
N       -1.10790000      -0.70910000       0.00530000
H        0.70800000       1.77010000       0.00860000
H        2.18930000      -0.10130000      -0.00980000
H        2.17330000      -2.64040000      -0.02320000
H       -2.31480000      -3.63950000      -0.00350000
H       -1.98080000      -0.19920000       0.01290000
