14
Properties=species:S:1:pos:R:3 gdb_25491=T pbc="F F F"
N       -0.17380000       1.31960000       0.01150000
C       -0.01210000       0.07160000       0.00340000
O       -1.13490000      -0.71250000       0.00810000
C       -1.02720000      -2.06870000       0.00060000
N        0.15100000      -2.66290000      -0.00990000
C        0.13650000      -4.00230000      -0.01640000
C       -1.04770000      -4.72300000      -0.01230000
N       -2.24070000      -4.11050000      -0.00160000
C       -2.23450000      -2.78680000       0.00490000
H        0.73370000       1.78240000       0.00630000
H        0.91430000      -0.50130000      -0.00760000
H        1.10160000      -4.50110000      -0.02510000
H       -1.04630000      -5.80830000      -0.01760000
H       -3.18330000      -2.25910000       0.01360000
