18
Properties=species:S:1:pos:R:3 gdb_62182=T pbc="F F F"
C       -0.05280000       1.58210000       0.03270000
C       -0.02030000       0.04240000       0.03380000
C        0.74780000      -0.53690000       1.24360000
N        2.14940000      -0.14000000       1.18460000
C        2.89370000      -0.51490000       2.38270000
C        4.30280000      -0.13120000       2.26290000
N        5.41770000       0.15070000       2.15790000
C       -1.37620000      -0.51470000       0.00580000
N       -2.44590000      -0.95190000       0.00070000
H        0.96870000       1.96190000       0.08760000
H       -0.53130000       1.96110000      -0.87300000
H       -0.61120000       1.95440000       0.89630000
H        0.48230000      -0.30170000      -0.88090000
H        0.31470000      -0.13010000       2.16530000
H        0.60460000      -1.63010000       1.27970000
H        2.59510000      -0.55420000       0.37120000
H        2.46330000       0.01060000       3.24400000
H        2.85310000      -1.59300000       2.62140000
