17
Properties=species:S:1:pos:R:3 gdb_119550=T pbc="F F F"
C       -0.24970000       0.77940000       0.30310000
O        0.95410000       0.47580000      -0.38030000
C        0.78000000      -0.39120000      -1.47790000
C        0.61140000      -1.83600000      -1.08330000
C        1.75860000      -2.69780000      -0.52030000
C        1.02770000      -3.14120000      -1.72780000
O       -0.21240000      -3.78620000      -1.32370000
C       -0.66890000      -2.58400000      -0.79690000
O       -1.74670000      -2.35100000      -0.35370000
H       -0.95680000       1.30860000      -0.35370000
H       -0.75020000      -0.11760000       0.68980000
H        0.01690000       1.43290000       1.13670000
H       -0.07530000      -0.07420000      -2.09520000
H        1.68520000      -0.29520000      -2.08790000
H        2.73920000      -2.25630000      -0.67270000
H        1.63350000      -3.24350000       0.40910000
H        1.40160000      -3.36350000      -2.71690000
