18
Properties=species:S:1:pos:R:3 gdb_106909=T pbc="F F F"
C       -0.31570000       1.47780000      -0.06670000
C        0.21000000       0.04520000       0.07410000
C        0.80560000      -0.49830000      -1.20980000
C        0.63430000      -1.93470000      -1.59920000
N       -0.10810000      -0.86450000      -2.30080000
C        0.53610000      -0.46110000      -3.53920000
O        0.10290000      -0.71010000      -4.63220000
C        1.78700000       0.26010000      -3.17740000
C        1.95620000       0.20710000      -1.85130000
H        0.48590000       2.17740000      -0.32510000
H       -1.07380000       1.53110000      -0.85350000
H       -0.76880000       1.81920000       0.86830000
H        0.97520000      -0.00490000       0.85990000
H       -0.60270000      -0.61830000       0.38670000
H        1.44180000      -2.42360000      -2.13810000
H        0.02240000      -2.58720000      -0.98180000
H        2.45690000       0.66830000      -3.92170000
H        2.78020000       0.62460000      -1.28430000
