13
Properties=species:S:1:pos:R:3 gdb_48229=T pbc="F F F"
N       -0.00300000       1.30840000      -0.02280000
C       -0.00390000       0.04760000       0.07640000
N       -1.21200000      -0.68650000      -0.01570000
C       -2.44290000       0.00040000      -0.08200000
O       -3.50170000      -0.54550000      -0.23650000
C       -1.13650000      -2.08850000      -0.05630000
N       -0.01500000      -2.66390000      -0.24260000
C       -2.34800000      -2.85370000       0.16440000
N       -3.16300000      -3.65070000       0.36100000
H        0.93930000       1.67330000       0.09950000
H        0.85190000      -0.60670000       0.23590000
H       -2.29220000       1.08160000       0.01930000
H       -0.11230000      -3.67650000      -0.20410000
