20
Properties=species:S:1:pos:R:3 gdb_105639=T pbc="F F F"
C        0.02320000       1.51670000      -0.06100000
N        0.05890000       0.07500000       0.11270000
C       -1.21210000      -0.63880000       0.34780000
C       -0.48030000      -1.58100000       1.32940000
C        0.67980000      -0.53380000       1.32040000
C        2.10140000      -1.06010000       1.08470000
N        2.98880000       0.03070000       0.69290000
C        0.63210000       0.33520000       2.51090000
N        0.55350000       1.02260000       3.43750000
H        1.04140000       1.91250000      -0.07650000
H       -0.45430000       1.74510000      -1.01960000
H       -0.53250000       2.03580000       0.73770000
H       -1.96990000      -0.01930000       0.85140000
H       -1.65640000      -1.08000000      -0.55000000
H       -0.95790000      -1.76660000       2.28990000
H       -0.16920000      -2.52610000       0.88100000
H        2.47260000      -1.50350000       2.01530000
H        2.02440000      -1.86540000       0.33780000
H        3.95890000      -0.23920000       0.80810000
H        2.85490000       0.23980000      -0.29080000
