16
Properties=species:S:1:pos:R:3 gdb_48604=T pbc="F F F"
O       -0.66300000       0.88130000       0.72220000
C        0.13740000       1.00080000      -0.17070000
C        1.36490000       1.84550000      -0.06890000
C        1.77930000       2.79570000       1.08520000
C        2.91470000       2.91090000       0.02580000
C        2.85720000       1.36290000      -0.11580000
C        1.78690000       3.00020000      -1.05970000
C        2.10140000       2.67170000      -2.43990000
N        2.34250000       2.41920000      -3.54250000
H        0.01140000       0.47300000      -1.14220000
H        1.15260000       3.67570000       1.24420000
H        2.04490000       2.31270000       2.02610000
H        3.80200000       3.54100000       0.06450000
H        3.18690000       0.78420000       0.74870000
H        3.21080000       0.93300000      -1.05420000
H        1.15770000       3.89250000      -1.01440000
