24
Properties=species:S:1:pos:R:3 gdb_121446=T pbc="F F F"
C       -1.72740000       1.72280000      -1.14320000
C       -1.21820000       0.32890000      -0.77010000
C       -2.33730000      -0.60140000      -0.28310000
N       -1.82750000      -1.93530000      -0.04700000
C       -1.90510000      -2.51000000       1.07830000
C       -2.51530000      -2.05450000       2.38630000
C       -3.89400000      -2.69130000       2.63060000
O       -1.41210000      -3.76540000       1.23610000
C       -0.84150000      -4.37570000       0.08200000
H       -0.91040000       2.36540000      -1.48510000
H       -2.46930000       1.67240000      -1.94820000
H       -2.20240000       2.21760000      -0.28840000
H       -0.72760000      -0.14150000      -1.62970000
H       -0.45600000       0.40430000       0.01550000
H       -2.83220000      -0.14620000       0.58920000
H       -3.10190000      -0.66880000      -1.07000000
H       -1.83110000      -2.34720000       3.18890000
H       -2.59400000      -0.96560000       2.40630000
H       -4.60880000      -2.39270000       1.85760000
H       -3.81970000      -3.78180000       2.62040000
H       -4.29540000      -2.38310000       3.60040000
H        0.00910000      -3.79610000      -0.28830000
H       -0.51730000      -5.36740000       0.40220000
H       -1.57630000      -4.45400000      -0.72470000
