19
Properties=species:S:1:pos:R:3 gdb_66569=T pbc="F F F"
C       -0.02680000       1.51580000       0.06820000
C       -0.05930000       0.01020000       0.05590000
C       -1.36040000      -0.83690000      -0.00620000
C       -0.48080000      -1.97690000       0.56510000
C        0.67670000      -2.19980000      -0.43420000
C        1.68880000      -1.38600000       0.36640000
C        0.47850000      -0.91460000       1.22570000
C        0.99320000      -0.74910000      -0.80400000
O        1.56510000      -0.34890000      -1.99250000
H        0.98690000       1.88330000       0.26410000
H       -0.33910000       1.92430000      -0.89990000
H       -0.69230000       1.92540000       0.83540000
H       -2.10080000      -0.49180000       0.72370000
H       -1.84510000      -0.98390000      -0.97860000
H       -0.89740000      -2.83330000       1.09460000
H        0.86260000      -3.02090000      -1.11510000
H        2.73510000      -1.56440000       0.57360000
H        0.47540000      -0.62890000       2.27510000
H        0.97270000      -0.58790000      -2.71450000
