14
Properties=species:S:1:pos:R:3 gdb_129524=T pbc="F F F"
N       -0.16780000       1.41010000       0.09610000
C        0.11300000       0.05660000       0.04690000
O        1.24180000      -0.38890000       0.07040000
N       -1.02760000      -0.73240000       0.01280000
C       -1.03960000      -2.11670000      -0.00650000
N       -2.20600000      -2.72670000       0.03280000
O       -1.90640000      -4.08630000      -0.00880000
C       -0.57650000      -4.23350000      -0.07190000
C        0.05160000      -3.03230000      -0.07450000
H        0.64440000       1.98550000      -0.06480000
H       -1.01610000       1.75170000      -0.32880000
H       -1.93440000      -0.30410000       0.12200000
H       -0.21900000      -5.25110000      -0.10820000
H        1.09850000      -2.79850000      -0.10920000
