17
Properties=species:S:1:pos:R:3 gdb_84898=T pbc="F F F"
C       -0.06520000       1.54530000      -0.05670000
C        0.06620000       0.02370000      -0.01350000
N        0.67670000      -0.44730000      -1.25350000
C        1.44340000      -1.45060000      -1.22740000
O        1.78460000      -2.24380000      -0.18030000
C        1.08630000      -1.99830000       1.03880000
C        0.82440000      -0.49670000       1.24200000
C        2.07800000       0.22190000       1.48250000
N        3.06630000       0.78600000       1.68390000
H        0.91860000       2.01810000      -0.11790000
H       -0.63780000       1.83330000      -0.94110000
H       -0.57820000       1.92110000       0.83450000
H       -0.94420000      -0.40410000       0.04540000
H        1.95170000      -1.79230000      -2.12630000
H        0.12560000      -2.52680000       1.01630000
H        1.70360000      -2.41900000       1.83400000
H        0.19460000      -0.36890000       2.12980000
