16
Properties=species:S:1:pos:R:3 gdb_66700=T pbc="F F F"
C        0.02700000       1.53670000       0.04700000
C        0.00290000       0.04240000      -0.02150000
C        0.52620000      -0.85370000      -1.17900000
C       -0.18910000      -2.15570000      -1.07230000
N        1.01960000      -1.88700000      -0.23290000
C        0.47180000      -1.02570000       0.90850000
C       -1.01550000      -0.86550000       0.68100000
C       -1.44250000      -1.94600000      -0.26390000
O       -2.50240000      -2.50450000      -0.36550000
H        1.02130000       1.92380000      -0.20280000
H       -0.69190000       1.97980000      -0.65120000
H       -0.22450000       1.88640000       1.05280000
H        1.10630000      -0.53150000      -2.03660000
H       -0.10600000      -2.94370000      -1.80860000
H        0.97050000      -1.01330000       1.86820000
H       -1.66620000      -0.47630000       1.45080000
