18
Properties=species:S:1:pos:R:3 gdb_87762=T pbc="F F F"
O        0.04980000       1.39190000       0.13290000
C        0.06560000      -0.00450000       0.12960000
C       -0.59830000      -0.76200000       1.26010000
C       -1.25440000      -0.65930000      -0.08790000
C       -2.55550000       0.07920000      -0.43980000
N       -2.83230000      -1.01450000      -1.38270000
C       -1.61430000      -1.77270000      -1.08490000
C       -3.73140000      -1.18280000      -2.37440000
O       -3.72840000      -2.11290000      -3.15590000
H        0.68690000       1.70000000       0.78600000
H        0.93820000      -0.45980000      -0.34070000
H       -0.17780000      -1.71610000       1.56300000
H       -1.02580000      -0.17140000       2.06470000
H       -3.28650000       0.16290000       0.37280000
H       -2.41310000       1.06010000      -0.90480000
H       -0.94570000      -1.88600000      -1.94560000
H       -1.80750000      -2.75980000      -0.64990000
H       -4.48670000      -0.36950000      -2.38970000
