21
Properties=species:S:1:pos:R:3 gdb_111119=T pbc="F F F"
C       -0.29200000       1.28960000       0.03700000
O        0.30750000       0.02610000      -0.13880000
C        0.85510000      -0.49930000       1.04780000
C       -0.16100000      -1.22160000       1.99220000
C       -0.14100000      -2.36730000       0.91700000
C        1.36980000      -1.94160000       0.82260000
C        1.86620000      -2.38100000       2.21270000
C        2.15200000      -1.36550000       3.29420000
C        0.73440000      -1.84560000       3.07900000
H        0.42360000       2.02550000       0.43670000
H       -0.63040000       1.62640000      -0.94590000
H       -1.15760000       1.25060000       0.71470000
H        1.52950000       0.24540000       1.48430000
H       -1.08410000      -0.73880000       2.31470000
H       -0.35060000      -3.38090000       1.26880000
H       -0.71250000      -2.13290000       0.01970000
H        1.98950000      -2.17400000      -0.04350000
H        2.24870000      -3.38970000       2.32020000
H        2.63680000      -1.76860000       4.17860000
H        2.46390000      -0.35260000       3.07260000
H        0.26080000      -2.44730000       3.84680000
