21
Properties=species:S:1:pos:R:3 gdb_40651=T pbc="F F F"
C        0.06730000       1.45500000      -0.14570000
O        1.25140000       0.66100000      -0.08480000
C       -0.01760000      -0.01230000      -0.11970000
C       -0.39630000      -0.73970000       1.12680000
C       -1.66120000      -1.55160000       1.33270000
C       -2.46280000      -2.05970000       0.14060000
C       -1.46340000      -2.83210000      -0.76050000
C       -0.24560000      -3.17890000       0.13720000
C       -0.31230000      -2.23860000       1.33520000
H       -0.16570000       2.01840000       0.75770000
H       -0.09150000       1.99470000      -1.07900000
H       -0.20930000      -0.50810000      -1.06800000
H       -0.10390000      -0.17010000       2.00620000
H       -2.20300000      -1.37720000       2.25660000
H       -3.23980000      -2.73610000       0.51450000
H       -2.97910000      -1.26390000      -0.40750000
H       -1.91790000      -3.73020000      -1.18750000
H       -1.15540000      -2.21820000      -1.61080000
H       -0.32260000      -4.20880000       0.50350000
H        0.70040000      -3.11070000      -0.41080000
H        0.14320000      -2.57620000       2.26020000
