19
Properties=species:S:1:pos:R:3 gdb_5249=T pbc="F F F"
C        0.02060000       1.59150000      -0.03500000
C        0.09390000       0.06290000      -0.05240000
C        0.62970000      -0.52870000       1.26500000
C        0.71790000      -2.02770000       1.26100000
C       -0.09630000      -2.89910000       1.95090000
N        0.29720000      -4.18190000       1.65810000
C        1.35730000      -4.15140000       0.78920000
C        1.64030000      -2.83280000       0.52390000
H        1.00900000       2.03430000       0.13300000
H       -0.36330000       1.98500000      -0.98160000
H       -0.63840000       1.94800000       0.76500000
H       -0.89940000      -0.35800000      -0.25110000
H        0.73290000      -0.26880000      -0.88010000
H        1.61930000      -0.09580000       1.46670000
H       -0.01620000      -0.20340000       2.09050000
H       -0.91690000      -2.70810000       2.62470000
H       -0.11930000      -5.01460000       2.03440000
H        1.81760000      -5.06210000       0.44100000
H        2.42610000      -2.47480000      -0.12480000
