16
Properties=species:S:1:pos:R:3 gdb_14683=T pbc="F F F"
C        0.02640000       1.37260000       0.10470000
O        0.05990000      -0.04760000      -0.00620000
C       -1.13140000      -0.66420000       0.02970000
N       -1.20870000      -1.91790000      -0.07000000
C       -2.52750000      -2.50860000      -0.01880000
C       -2.74980000      -3.35870000      -1.28880000
C       -4.03860000      -4.04440000      -1.27780000
N       -5.06500000      -4.57470000      -1.25020000
H        1.06420000       1.70520000       0.07610000
H       -0.52000000       1.82620000      -0.73050000
H       -0.42680000       1.68910000       1.05140000
H       -1.99510000       0.00840000       0.15540000
H       -2.58970000      -3.16910000       0.85390000
H       -3.33860000      -1.76780000       0.07250000
H       -2.69230000      -2.71960000      -2.17650000
H       -1.94400000      -4.09460000      -1.37360000
