14
Properties=species:S:1:pos:R:3 gdb_48520=T pbc="F F F"
O       -0.15240000       0.03310000      -0.03630000
C        0.04360000       1.21110000      -0.19460000
C        1.35100000       1.86890000      -0.02780000
C        1.46230000       3.34510000       0.52000000
C        2.91010000       3.46790000       0.98840000
N        3.32440000       2.69960000      -0.26520000
C        1.94340000       3.04320000      -0.83370000
C        2.75600000       1.35740000       0.08220000
O        3.31110000       0.32630000       0.25960000
H       -0.77720000       1.90360000      -0.49540000
H        0.56570000       3.86670000       0.83500000
H        3.27960000       4.49380000       0.93250000
H        3.21890000       2.99910000       1.92740000
H        1.72820000       3.34700000      -1.84680000
