20
Properties=species:S:1:pos:R:3 gdb_14460=T pbc="F F F"
C       -0.02540000       1.49070000       0.03080000
C        0.01490000      -0.01190000      -0.03040000
C        0.23820000      -0.76770000      -1.34180000
C        0.17580000      -2.20050000      -0.76460000
C        1.20860000      -2.11700000       0.38570000
C        0.63010000      -0.87600000       1.05840000
C       -0.87210000      -0.90650000       0.82010000
C       -1.16460000      -2.16520000       0.00930000
H        0.91660000       1.93050000      -0.31830000
H       -0.83000000       1.89490000      -0.59510000
H       -0.19460000       1.84320000       1.05360000
H       -0.54840000      -0.57380000      -2.08030000
H        1.20640000      -0.53810000      -1.80210000
H        0.30500000      -3.01770000      -1.47420000
H        1.19340000      -3.00200000       1.03120000
H        2.23180000      -1.97060000       0.02280000
H        1.05520000      -0.43870000       1.95310000
H       -1.57010000      -0.49210000       1.53670000
H       -2.03030000      -2.05730000      -0.65310000
H       -1.31470000      -3.05300000       0.63350000
