14
Properties=species:S:1:pos:R:3 gdb_5548=T pbc="F F F"
C       -0.31960000       1.25170000      -0.09660000
O        0.58020000       0.15870000       0.13270000
C        0.86930000      -0.57780000      -0.94710000
C        0.72000000      -1.89720000      -1.23700000
N        0.19450000      -2.93210000      -0.46640000
N        1.28730000      -2.14560000      -2.47940000
C        1.73970000      -0.99720000      -2.86790000
O        1.54520000       0.01450000      -1.99930000
H        0.12900000       1.99020000      -0.76860000
H       -1.26280000       0.89410000      -0.52630000
H       -0.50360000       1.70730000       0.87750000
H       -0.45390000      -2.60870000       0.23890000
H       -0.22580000      -3.64970000      -1.04270000
H        2.23770000      -0.75780000      -3.79400000
