21
Properties=species:S:1:pos:R:3 gdb_66379=T pbc="F F F"
C        0.10790000       1.54320000       0.21470000
C        0.00180000       0.01840000       0.08140000
C        0.57240000      -0.47710000      -1.25600000
C        0.75160000      -2.00180000      -1.27800000
C        1.51260000      -2.46450000      -0.02950000
C        0.81590000      -1.93070000       1.21940000
O        0.70890000      -0.50950000       1.20320000
C       -1.48560000      -0.32540000       0.24070000
O       -2.25790000      -0.52590000      -0.66000000
H        1.16400000       1.82510000       0.23830000
H       -0.37970000       2.03870000      -0.62890000
H       -0.35570000       1.88590000       1.14470000
H       -0.09670000      -0.15720000      -2.05980000
H        1.54120000       0.01220000      -1.41190000
H       -0.23310000      -2.48450000      -1.30720000
H        1.27600000      -2.30370000      -2.19020000
H        1.56570000      -3.55790000       0.01940000
H        2.54240000      -2.08630000      -0.05250000
H       -0.18350000      -2.38990000       1.31040000
H        1.37210000      -2.17070000       2.12980000
H       -1.80780000      -0.33560000       1.30830000
