20
Properties=species:S:1:pos:R:3 gdb_103229=T pbc="F F F"
C       -0.08010000       1.63710000      -0.05380000
C        0.01840000       0.10990000      -0.08870000
C       -1.16520000      -0.53410000       0.62410000
O       -1.15190000      -0.10680000       1.97900000
C        0.46360000      -0.76060000      -1.23970000
C        1.80220000      -0.36160000      -1.89050000
C        2.54320000       0.77500000      -1.29650000
N        2.55650000      -0.52280000      -0.59650000
C        1.22520000      -0.80660000       0.06880000
H        0.09200000       2.08700000      -1.03390000
H       -1.08370000       1.92680000       0.27060000
H        0.61600000       2.08040000       0.66360000
H       -2.09460000      -0.22180000       0.12080000
H       -1.10250000      -1.63090000       0.55240000
H       -1.96790000      -0.40090000       2.39430000
H       -0.17410000      -1.51330000      -1.68840000
H        2.15400000      -0.86190000      -2.78760000
H        3.51120000       0.98530000      -1.74570000
H        2.06380000       1.63760000      -0.86360000
H        1.24570000      -1.55730000       0.84900000
