18
Properties=species:S:1:pos:R:3 gdb_103035=T pbc="F F F"
N        0.22220000       1.49650000      -0.04370000
C       -0.08580000       0.07340000       0.03040000
C        0.76550000      -0.54520000       1.14620000
C        0.30020000       0.00270000       2.42600000
N       -0.12040000       0.39240000       3.42960000
C        1.20410000      -2.04500000       1.15170000
C        2.14390000      -1.65740000      -0.00720000
N        2.32060000      -0.46430000       0.95630000
C        2.37400000      -1.56560000       2.04030000
H        1.19500000       1.62720000      -0.30170000
H       -0.35120000       1.95400000      -0.74310000
H       -1.13910000      -0.04190000       0.31070000
H        0.04780000      -0.48090000      -0.90880000
H        0.56130000      -2.92340000       1.26630000
H        3.06110000      -2.23930000      -0.11470000
H        1.73600000      -1.40520000      -0.98420000
H        2.16030000      -1.20870000       3.04770000
H        3.29920000      -2.14350000       2.00620000
