16
Properties=species:S:1:pos:R:3 gdb_29412=T pbc="F F F"
N       -0.32690000       1.45550000       0.20420000
C       -0.12050000       0.08240000       0.06010000
C       -0.95340000      -0.87470000      -0.47310000
N       -0.21520000      -2.04710000      -0.43030000
C        0.99400000      -1.75410000       0.11490000
C        2.06620000      -2.78420000       0.29840000
C        2.46220000      -3.32850000      -1.06580000
O        2.11370000      -4.40240000      -1.48680000
N        1.08380000      -0.47210000       0.41730000
H        0.31660000       1.84580000       0.88020000
H       -1.27860000       1.70240000       0.43860000
H       -1.95400000      -0.83960000      -0.86770000
H       -0.51260000      -2.95250000      -0.75490000
H        2.91830000      -2.29090000       0.77300000
H        1.72960000      -3.61970000       0.92080000
H        3.06560000      -2.62920000      -1.68460000
