15
Properties=species:S:1:pos:R:3 gdb_2182=T pbc="F F F"
C        0.03690000       1.63710000      -0.00810000
C        0.13130000       0.11920000      -0.01220000
C        0.80880000      -0.63770000      -1.20000000
O        1.69000000       0.24300000      -1.86510000
C        1.53300000      -1.58320000      -0.18990000
C        1.14330000      -0.58040000       0.91310000
O        1.53610000      -0.36630000       2.02200000
H        0.99380000       2.08340000      -0.28460000
H       -0.72100000       1.98990000      -0.71390000
H       -0.23420000       1.98930000       0.99140000
H       -0.85150000      -0.33340000       0.17720000
H        0.12250000      -1.12590000      -1.90190000
H        2.23030000      -0.27260000      -2.47200000
H        1.03530000      -2.54930000      -0.05540000
H        2.60220000      -1.74630000      -0.34760000
