18
Properties=species:S:1:pos:R:3 gdb_75447=T pbc="F F F"
C        0.29540000       1.53220000      -0.03220000
C        0.15130000       0.04200000      -0.11350000
N       -0.04230000      -0.56360000      -1.20820000
C       -0.22510000      -2.01070000      -1.20070000
C       -0.63060000      -2.56230000       0.16800000
C        0.28680000      -1.93660000       1.22000000
O        0.26230000      -0.51100000       1.13790000
C       -0.13230000      -2.30730000       2.63370000
O       -0.06960000      -3.42800000       3.06390000
H        1.27450000       1.79840000       0.37890000
H        0.18240000       1.96350000      -1.02570000
H       -0.46100000       1.94860000       0.64080000
H       -0.98440000      -2.25830000      -1.95030000
H        0.70580000      -2.48340000      -1.54310000
H       -1.66920000      -2.28990000       0.38900000
H       -0.55100000      -3.65110000       0.22100000
H        1.31720000      -2.28680000       1.06560000
H       -0.52130000      -1.45280000       3.23010000
