19
Properties=species:S:1:pos:R:3 gdb_62981=T pbc="F F F"
C       -0.18380000       1.57480000      -0.11340000
C        0.01170000       0.06890000      -0.05230000
O       -1.21730000      -0.59320000       0.19040000
C        0.68220000      -0.64380000      -1.22970000
C        2.12030000      -0.23210000      -1.38450000
C        1.76120000      -1.22820000      -0.32440000
C        1.15900000      -0.51460000       0.90350000
C        2.00240000       0.39050000       1.65860000
C        2.68900000       1.16740000       2.27020000
H        0.74790000       2.09980000      -0.33370000
H       -0.91980000       1.82020000      -0.88510000
H       -0.54750000       1.95550000       0.84910000
H       -1.64090000      -0.16510000       0.94280000
H        0.11880000      -1.12350000      -2.02030000
H        2.61890000      -0.64370000      -2.25600000
H        2.45830000       0.76370000      -1.11200000
H        2.17010000      -2.23030000      -0.30250000
H        0.67080000      -1.23310000       1.56710000
H        3.30140000       1.84060000       2.81720000
