15
Properties=species:S:1:pos:R:3 gdb_75683=T pbc="F F F"
C       -0.07390000       1.65120000      -0.14390000
C       -0.01030000       0.13460000      -0.02350000
C        1.06210000      -0.65560000      -0.84040000
O        1.22920000      -0.85630000      -2.00380000
C        1.68980000      -1.21110000       0.43870000
O        1.99790000      -0.06910000       1.24250000
C        0.64120000      -0.47980000       1.23640000
C        0.00250000      -0.97360000       2.48340000
O        0.58500000      -1.16690000       3.51820000
H        0.87860000       2.09870000       0.14940000
H       -0.28370000       1.93530000      -1.17910000
H       -0.86430000       2.06690000       0.48850000
H       -0.98300000      -0.32750000      -0.23760000
H        2.21450000      -2.13560000       0.65290000
H       -1.08770000      -1.16450000       2.37220000
