19
Properties=species:S:1:pos:R:3 gdb_37736=T pbc="F F F"
C       -0.07170000       1.59650000       0.00550000
C        1.44210000       1.23820000       0.00620000
C        1.21270000       0.00640000       0.93380000
C        1.85870000      -1.00690000      -0.02180000
O        1.24300000      -2.28820000      -0.00400000
C       -0.09380000      -2.31380000      -0.50220000
C       -0.96910000      -1.12290000      -0.03250000
C       -0.03260000       0.05610000      -0.02160000
C        1.23060000       0.03750000      -0.96850000
H       -0.46500000       2.06630000       0.91340000
H       -0.46120000       2.10070000      -0.88570000
H        2.29830000       1.91320000       0.02020000
H        1.16730000       0.00140000       2.02420000
H        2.93980000      -1.16970000      -0.00780000
H       -0.06820000      -2.30570000      -1.60240000
H       -0.51340000      -3.27240000      -0.18600000
H       -1.80840000      -1.00160000      -0.72720000
H       -1.38740000      -1.29680000       0.96580000
H        1.21720000       0.08480000      -2.05870000
