12
Properties=species:S:1:pos:R:3 gdb_726=T pbc="F F F"
C       -0.02130000       1.50490000       0.06140000
C       -0.00290000       0.01640000      -0.06550000
C       -0.06260000      -0.81790000      -1.16550000
C        0.00010000      -2.12580000      -0.63800000
N        0.09050000      -2.12270000       0.68760000
N        0.08710000      -0.81190000       1.00850000
H        0.90000000       1.88750000       0.51600000
H       -0.11970000       1.96260000      -0.92490000
H       -0.86050000       1.85190000       0.67520000
H       -0.14000000      -0.51620000      -2.19770000
H       -0.01800000      -3.06620000      -1.16960000
H        0.14840000      -0.55080000       1.97830000
