19
Properties=species:S:1:pos:R:3 gdb_41479=T pbc="F F F"
C        0.22900000       1.55770000       0.34000000
O        1.54450000       1.45730000      -0.27110000
C        1.32740000       0.08460000      -0.61990000
C        1.86890000      -0.43150000      -1.94540000
C        2.62410000      -1.73400000      -1.57020000
C        1.93230000      -2.25090000      -0.28600000
C        1.60420000      -0.96470000       0.48350000
O        0.23950000      -0.86270000       0.98190000
C       -0.10260000       0.09900000      -0.02750000
H        0.27340000       1.75580000       1.41600000
H       -0.37680000       2.32270000      -0.16050000
H        1.05520000      -0.63140000      -2.65050000
H        2.51730000       0.31900000      -2.40540000
H        2.62460000      -2.47500000      -2.37360000
H        3.67180000      -1.49740000      -1.35260000
H        0.99220000      -2.75670000      -0.53110000
H        2.55060000      -2.95350000       0.27840000
H        2.33910000      -0.70250000       1.25130000
H       -1.04290000      -0.12230000      -0.53660000
