21
Properties=species:S:1:pos:R:3 gdb_41376=T pbc="F F F"
C       -0.02280000       1.51520000      -0.34550000
C        1.45230000       1.62870000       0.18170000
C        1.37250000       0.14420000       0.63560000
C        1.35840000      -0.33250000       2.07890000
C        0.09500000      -1.23820000       2.12530000
C       -0.92940000      -0.56720000       1.16220000
C       -0.04500000       0.01240000       0.06040000
C        0.61660000      -0.95540000      -0.94400000
O        1.91910000      -0.80070000      -0.31580000
H       -0.73440000       2.12090000       0.22170000
H       -0.16820000       1.72430000      -1.40870000
H        2.20910000       1.79790000      -0.58650000
H        1.59630000       2.35410000       0.98650000
H        2.27230000      -0.86130000       2.36350000
H        1.24050000       0.52330000       2.75390000
H        0.35340000      -2.23510000       1.75130000
H       -0.29970000      -1.36800000       3.13700000
H       -1.68750000      -1.27310000       0.80700000
H       -1.45850000       0.24100000       1.68120000
H        0.26970000      -1.99610000      -0.89840000
H        0.62380000      -0.62940000      -1.99220000
