18
Properties=species:S:1:pos:R:3 gdb_102159=T pbc="F F F"
N       -0.21420000       1.15920000      -0.24750000
H       -0.05600000       0.15920000      -0.30500000
H        1.14710000       2.29340000      -0.06450000
H       -0.84930000       1.40780000      -1.00000000
C       -0.78670000       1.53500000       1.05890000
C       -0.63270000       3.05370000       1.28940000
C       -1.43000000       3.53140000       2.52240000
C       -1.75670000       4.95090000       2.48260000
C       -2.05980000       6.11170000       2.42220000
C        0.84920000       3.46820000       1.40340000
O        1.65220000       2.97080000       0.45460000
O        1.26110000       4.18800000       2.27480000
H       -1.84690000       1.26150000       1.14930000
H       -0.24450000       0.98210000       1.83400000
H       -1.03630000       3.55880000       0.40110000
H       -2.36230000       2.95570000       2.59010000
H       -0.84930000       3.31470000       3.42530000
H       -2.30250000       7.14460000       2.38630000
