18
Properties=species:S:1:pos:R:3 gdb_60737=T pbc="F F F"
C        0.10110000       1.48930000       0.14300000
N        0.07250000       0.03050000       0.06900000
C       -0.09470000      -0.67830000       1.25590000
O       -0.18410000      -0.15290000       2.34120000
C        0.21920000      -0.65500000      -1.14800000
N        0.50290000      -1.89870000      -1.13810000
C        0.00480000       0.19810000      -2.36630000
C        1.19060000       0.70020000      -3.12510000
N        0.29290000      -0.30260000      -3.70780000
H        0.95400000       1.88910000      -0.40910000
H       -0.81870000       1.93640000      -0.24840000
H        0.19100000       1.74790000       1.19750000
H       -0.14180000      -1.76020000       1.08180000
H        0.47550000      -2.29370000      -2.07590000
H       -0.87320000       0.83720000      -2.32220000
H        1.15790000       1.68190000      -3.58820000
H        2.17170000       0.38080000      -2.78340000
H        0.73090000      -1.22080000      -3.66750000
