18
Properties=species:S:1:pos:R:3 gdb_66375=T pbc="F F F"
O       -0.08250000       1.40960000       0.01080000
C        0.02200000      -0.00490000      -0.01660000
C        0.77070000      -0.55690000       1.21570000
C        0.62350000      -2.08060000       1.31900000
O       -0.73750000      -2.46620000       1.34120000
C       -1.41940000      -2.07840000       0.16150000
C       -1.41370000      -0.55780000      -0.01940000
C        0.72990000      -0.41920000      -1.25460000
N        1.30580000      -0.72440000      -2.20950000
H        0.80690000       1.78300000       0.01790000
H        1.83020000      -0.27900000       1.17670000
H        0.32280000      -0.08200000       2.09430000
H        1.14810000      -2.56870000       0.48120000
H        1.06580000      -2.44350000       2.25020000
H       -0.96950000      -2.56690000      -0.71830000
H       -2.44440000      -2.44410000       0.26140000
H       -1.93470000      -0.08180000       0.81700000
H       -1.92280000      -0.27250000      -0.94430000
