19
Properties=species:S:1:pos:R:3 gdb_118562=T pbc="F F F"
C        0.16890000       0.92340000       0.74400000
O        0.01620000      -0.41440000       0.30820000
C       -1.33080000      -0.77310000       0.05180000
C       -1.42180000      -2.26890000      -0.24720000
C       -0.56640000      -2.72520000      -1.43900000
O        0.81980000      -2.47190000      -1.33900000
O       -1.26720000      -3.03900000       0.95670000
C       -0.04280000      -3.25640000       1.50530000
O        0.06030000      -3.78720000       2.57170000
H        1.23270000       1.08490000       0.92780000
H       -0.17930000       1.63670000      -0.01720000
H       -0.38890000       1.10060000       1.67390000
H       -1.95770000      -0.54380000       0.92580000
H       -1.72360000      -0.20540000      -0.80780000
H       -2.46340000      -2.46000000      -0.53130000
H       -0.68470000      -3.80700000      -1.55910000
H       -0.99750000      -2.24810000      -2.33590000
H        0.91780000      -1.56450000      -1.01890000
H        0.79140000      -2.93320000       0.87030000
