15
Properties=species:S:1:pos:R:3 gdb_2192=T pbc="F F F"
C       -0.27850000       1.51880000      -0.08880000
C        0.07370000       0.05010000      -0.00790000
O        1.29130000      -0.25810000      -0.78140000
C        1.94360000      -0.72750000       0.32880000
O        3.06170000      -1.12670000       0.40170000
C        0.75270000      -0.51820000       1.26830000
C        0.98080000       0.34920000       2.50020000
H        0.55130000       2.14900000       0.24090000
H       -0.52290000       1.78990000      -1.11990000
H       -1.15130000       1.73500000       0.53600000
H       -0.74510000      -0.57150000      -0.38150000
H        0.32530000      -1.48230000       1.56120000
H        1.43020000       1.31300000       2.24800000
H        0.04090000       0.53640000       3.02850000
H        1.65980000      -0.16200000       3.18830000
