19
Properties=species:S:1:pos:R:3 gdb_90951=T pbc="F F F"
O        0.15770000       1.33230000      -0.33750000
C        0.08350000      -0.04440000      -0.00990000
C        0.77850000      -0.36940000       1.34460000
C       -0.22950000      -0.68470000       2.44060000
C       -1.36300000      -1.65140000       2.11730000
C       -1.55250000      -1.89130000       0.62650000
C       -1.39190000      -0.46360000       0.07260000
O       -1.99380000       0.39410000       1.06540000
C       -1.64670000      -0.18580000       2.30730000
H       -0.51680000       1.76080000       0.20720000
H        0.58030000      -0.57550000      -0.82840000
H        1.46250000      -1.21850000       1.22870000
H        1.39230000       0.49560000       1.61320000
H        0.16450000      -0.73680000       3.45120000
H       -1.67100000      -2.40200000       2.83450000
H       -0.81870000      -2.57640000       0.18910000
H       -2.55280000      -2.28540000       0.42260000
H       -1.90390000      -0.27330000      -0.87250000
H       -2.20240000       0.24080000       3.13270000
