15
Properties=species:S:1:pos:R:3 gdb_27661=T pbc="F F F"
N        0.13670000       1.40880000       0.11630000
C       -0.01970000       0.01350000       0.02340000
C       -1.10360000      -0.81780000       0.01800000
C       -0.60650000      -2.17030000      -0.00410000
C       -1.33490000      -3.37700000       0.00800000
N       -1.90400000      -4.38910000       0.01870000
C        0.78100000      -2.10180000      -0.03690000
N        1.73860000      -3.10350000      -0.15920000
N        1.12130000      -0.78170000      -0.01310000
H        0.28920000       1.84640000      -0.78830000
H       -0.68130000       1.83690000       0.53180000
H       -2.14060000      -0.52350000       0.02950000
H        1.30610000      -4.01870000      -0.19950000
H        2.43670000      -3.09590000       0.57670000
H        2.05990000      -0.41920000      -0.01960000
