11
Properties=species:S:1:pos:R:3 gdb_42155=T pbc="F F F"
O        0.03310000      -0.09110000       0.00140000
C       -0.01780000       1.11610000       0.00620000
C        1.20880000       1.93100000       0.00090000
N        2.17790000       2.56130000      -0.00330000
C       -1.23620000       1.87980000       0.01720000
C       -2.26570000       2.50570000       0.02640000
C       -3.52830000       3.23460000       0.03690000
C       -3.36250000       4.69270000       0.04320000
N       -3.25050000       5.84110000       0.04840000
H       -4.12500000       2.94810000      -0.83890000
H       -4.11540000       2.93940000       0.91640000
