15
Properties=species:S:1:pos:R:3 gdb_13750=T pbc="F F F"
C       -0.16930000       1.30120000       0.18320000
C        0.32720000      -0.10410000      -0.07850000
O        0.81580000      -0.80170000       0.78110000
C        0.18990000      -0.59270000      -1.49910000
C        1.45550000      -1.11870000      -2.16030000
N        0.38140000      -1.99240000      -1.80260000
C        0.49340000      -3.03820000      -0.88200000
O        1.41010000      -3.81630000      -0.86610000
H        0.26840000       2.00530000      -0.53320000
H       -1.25620000       1.34120000       0.04420000
H        0.07870000       1.59910000       1.20200000
H       -0.53450000      -0.06950000      -2.11920000
H        1.60780000      -0.93570000      -3.22010000
H        2.34970000      -1.15830000      -1.54320000
H       -0.40790000      -3.12870000      -0.25210000
