17
Properties=species:S:1:pos:R:3 gdb_55786=T pbc="F F F"
N        0.68080000       0.11620000      -0.61080000
C       -0.34980000       0.33810000       0.23480000
O       -0.61890000       1.41980000       0.72280000
C       -1.25200000      -0.86580000       0.55810000
C       -0.85300000      -2.25170000       0.15490000
N        0.12150000      -2.61060000      -0.58130000
C        0.07450000      -4.07540000      -0.68410000
C       -1.16020000      -4.47840000       0.16180000
O       -1.66880000      -3.21630000       0.65310000
H        1.29300000       0.88990000      -0.81090000
H        0.89340000      -0.82650000      -0.91910000
H       -1.42220000      -0.85400000       1.63890000
H       -2.23440000      -0.65430000       0.11800000
H       -0.01870000      -4.37430000      -1.73310000
H        1.00540000      -4.50740000      -0.30290000
H       -1.95030000      -4.96200000      -0.41850000
H       -0.91660000      -5.10600000       1.02280000
