16
Properties=species:S:1:pos:R:3 gdb_124769=T pbc="F F F"
C        0.29780000       1.40440000       0.35100000
C       -0.17430000      -0.00880000      -0.03050000
O       -1.55760000      -0.01350000      -0.27880000
C        0.59950000      -0.53780000      -1.22510000
C        1.96760000      -0.84720000      -1.19720000
N        2.58810000      -1.29300000      -2.27540000
C        1.81130000      -1.41270000      -3.36260000
N        0.51350000      -1.14300000      -3.44610000
N       -0.09290000      -0.70090000      -2.34650000
H        1.35610000       1.41830000       0.63210000
H        0.14550000       2.09230000      -0.48590000
H       -0.29170000       1.75700000       1.20070000
H        0.02980000      -0.68090000       0.81860000
H       -1.66760000      -0.19170000      -1.22600000
H        2.55410000      -0.73740000      -0.28710000
H        2.27980000      -1.77130000      -4.27390000
