20
Properties=species:S:1:pos:R:3 gdb_37972=T pbc="F F F"
C       -0.07000000       1.43150000      -0.14770000
C        1.47200000       1.51920000       0.05490000
O        2.08120000       2.34750000       1.01230000
C        1.43880000       2.49210000       2.26820000
C        1.24740000       1.20160000       3.07000000
C        0.15150000       0.25620000       2.54970000
C        0.47190000      -0.45550000       1.23810000
C        1.45580000       0.00070000       0.23400000
N       -0.03690000      -0.06960000      -0.09950000
H       -0.71420000       1.89420000       0.60400000
H       -0.39580000       1.76610000      -1.13380000
H        1.96020000       1.78010000      -0.88710000
H        2.08680000       3.17400000       2.82770000
H        0.46740000       2.99810000       2.14780000
H        2.20460000       0.66890000       3.11790000
H        0.99580000       1.49600000       4.09730000
H       -0.02490000      -0.51600000       3.30570000
H       -0.79790000       0.80040000       2.46570000
H        0.42910000      -1.53970000       1.31620000
H        2.17320000      -0.67620000      -0.22060000
