18
Properties=species:S:1:pos:R:3 gdb_103246=T pbc="F F F"
O        0.27940000       1.02240000       1.00340000
C        0.05990000       0.14010000      -0.09560000
C       -1.28260000      -0.53680000       0.08250000
O       -2.32110000       0.20090000      -0.53080000
C       -1.56450000      -1.99520000      -0.05970000
C       -0.63880000      -2.89640000       0.78550000
C        0.27650000      -2.24680000       1.76760000
N       -1.15450000      -2.32440000       2.08260000
C       -1.91080000      -1.32110000       1.25160000
H        1.05670000       1.55560000       0.80920000
H       -0.00320000       0.69620000      -1.04160000
H        0.86770000      -0.59390000      -0.19490000
H       -2.41610000       1.01760000      -0.02630000
H       -2.22110000      -2.38550000      -0.82630000
H       -0.61980000      -3.97170000       0.63710000
H        0.85820000      -2.94080000       2.37070000
H        0.73920000      -1.27830000       1.64390000
H       -2.86850000      -0.98100000       1.62370000
