17
Properties=species:S:1:pos:R:3 gdb_54669=T pbc="F F F"
C        0.02700000       1.51280000       0.01010000
C        0.04040000       0.00300000       0.00260000
O        1.07390000      -0.63480000      -0.00820000
C       -1.27490000      -0.71620000       0.01120000
C       -1.37690000      -2.05740000       0.00840000
C       -2.79130000      -2.55980000       0.01860000
C       -3.64580000      -1.27890000       0.02870000
C       -2.64010000      -0.11570000       0.02380000
O       -2.92910000       1.05890000       0.03000000
H        1.05380000       1.88000000       0.00330000
H       -0.52580000       1.89400000      -0.85410000
H       -0.51120000       1.88560000       0.88710000
H       -0.51460000      -2.71530000      -0.00040000
H       -2.98120000      -3.19510000      -0.85540000
H       -2.96700000      -3.19930000       0.89250000
H       -4.29990000      -1.19090000      -0.84340000
H       -4.28630000      -1.19550000       0.91130000
