20
Properties=species:S:1:pos:R:3 gdb_52996=T pbc="F F F"
C       -0.05460000       1.46680000       0.02870000
C       -0.02090000       0.01270000       0.00080000
C       -0.00620000      -1.19290000      -0.02640000
C        0.06340000      -2.61610000      -0.03310000
C       -0.45520000      -3.45540000      -1.14320000
N       -1.15980000      -3.55060000       0.13950000
C       -0.29330000      -4.43860000       0.99340000
C        0.90560000      -3.45330000       0.94640000
C        2.28850000      -3.92370000       0.51820000
H        0.44950000       1.85980000       0.91860000
H        0.43720000       1.89790000      -0.85060000
H       -1.08650000       1.83510000       0.04470000
H       -1.02920000      -2.94110000      -1.90750000
H        0.11670000      -4.31010000      -1.50160000
H       -0.73580000      -4.55960000       1.98350000
H       -0.12870000      -5.42880000       0.55260000
H        0.97800000      -2.91790000       1.89680000
H        2.25950000      -4.46430000      -0.43300000
H        2.96910000      -3.07360000       0.40070000
H        2.72010000      -4.59530000       1.26850000
