17
Properties=species:S:1:pos:R:3 gdb_7452=T pbc="F F F"
C        0.07670000       1.66700000      -0.05640000
C        0.05940000       0.14200000      -0.06070000
O        0.80310000      -0.28040000      -1.17890000
C        0.65090000      -0.45640000       1.24160000
N        0.01620000      -0.02460000       2.49730000
H        0.26050000      -1.81560000       2.99580000
H        0.39720000       0.85670000       2.82020000
H       -0.98270000       0.11110000       2.36500000
C        0.63730000      -2.00040000       1.20080000
O        0.81930000      -2.64490000       0.19290000
O        0.42160000      -2.57060000       2.38320000
H        1.10130000       2.03540000       0.06240000
H       -0.30290000       2.03240000      -1.01380000
H       -0.54580000       2.08260000       0.74090000
H       -0.99100000      -0.20160000      -0.13150000
H        0.88980000      -1.24490000      -1.09840000
H        1.70930000      -0.16870000       1.27850000
