16
Properties=species:S:1:pos:R:3 gdb_54540=T pbc="F F F"
O       -0.09290000       0.22070000       0.58470000
C       -0.13680000       1.38800000       0.32640000
O        1.00240000       2.10540000       0.16180000
C       -1.42420000       2.16160000       0.18370000
C       -1.53800000       3.63540000      -0.21340000
N       -2.91510000       4.03570000       0.11620000
H        0.80630000       3.02090000      -0.06950000
H       -3.49120000       3.82940000      -0.69120000
C       -3.36190000       3.16210000       1.21760000
C       -2.57600000       1.87000000       1.06150000
O       -2.54190000       1.39740000      -0.28060000
H       -0.82660000       4.23220000       0.37920000
H       -1.33450000       3.81820000      -1.27290000
H       -3.12440000       3.61180000       2.19090000
H       -4.44480000       3.01840000       1.17090000
H       -2.52550000       1.10880000       1.83470000
