25
Properties=species:S:1:pos:R:3 gdb_122217=T pbc="F F F"
C       -2.58860000      -1.06440000       0.06720000
C       -1.06870000      -1.23530000       0.01300000
C       -0.59670000      -1.84400000      -1.30110000
O        0.81910000      -1.93770000      -1.26270000
C        1.40350000      -2.63340000      -2.33320000
C        1.38940000      -1.90590000      -3.66620000
C        2.07830000      -0.53850000      -3.60170000
C        2.61050000      -3.42980000      -1.93800000
C        1.31660000      -4.13990000      -2.29030000
H       -2.94580000      -0.40620000      -0.73260000
H       -3.10380000      -2.02540000      -0.04150000
H       -2.90150000      -0.62730000       1.01980000
H       -0.57260000      -0.26680000       0.14500000
H       -0.72680000      -1.87400000       0.83550000
H       -1.03990000      -2.84200000      -1.44550000
H       -0.92660000      -1.21730000      -2.14470000
H        1.88060000      -2.54170000      -4.41170000
H        0.35420000      -1.78500000      -4.01080000
H        1.60890000       0.09570000      -2.84470000
H        3.13460000      -0.64370000      -3.33340000
H        2.02310000      -0.02240000      -4.56500000
H        3.44160000      -3.48730000      -2.63280000
H        2.88990000      -3.40050000      -0.89140000
H        0.76040000      -4.58170000      -1.47110000
H        1.25960000      -4.68860000      -3.22450000
