16
Properties=species:S:1:pos:R:3 gdb_42834=T pbc="F F F"
O        0.08720000       0.01070000      -0.16280000
C        0.02350000       1.18090000       0.05820000
C       -1.10120000       2.23950000       0.04730000
C       -1.37330000       2.82380000       1.44010000
C       -0.06670000       3.15070000       2.14340000
O        0.78100000       2.04190000       2.46740000
C        1.18770000       2.92470000       1.40960000
C        1.01470000       2.36880000       0.00470000
N       -0.10610000       3.14610000      -0.64930000
H       -2.01750000       2.01610000      -0.50320000
H       -1.95330000       3.74590000       1.32380000
H       -1.96590000       2.12620000       2.04270000
H       -0.10370000       3.92030000       2.91250000
H        2.07160000       3.52070000       1.62360000
H        1.94150000       2.27580000      -0.56270000
H       -0.10940000       2.91890000      -1.64240000
