17
Properties=species:S:1:pos:R:3 gdb_57983=T pbc="F F F"
C        0.00370000       1.17990000      -0.69760000
C       -0.07730000      -0.12770000       0.10770000
N        0.37510000       0.09110000       1.47260000
C       -1.50240000      -0.67820000       0.02800000
O       -2.31650000      -0.65630000       0.91180000
O       -1.75050000      -1.20610000      -1.20700000
C       -3.07590000      -1.69950000      -1.41630000
C       -3.96280000      -0.64950000      -1.92890000
N       -4.66440000       0.16800000      -2.34450000
H        1.02760000       1.55720000      -0.66240000
H       -0.29010000       1.02220000      -1.73760000
H       -0.65710000       1.93850000      -0.26450000
H        0.58040000      -0.86560000      -0.36570000
H       -0.29390000       0.69200000       1.94850000
H        0.35860000      -0.78530000       1.98680000
H       -2.99370000      -2.50050000      -2.15420000
H       -3.48470000      -2.09240000      -0.48180000
