18
Properties=species:S:1:pos:R:3 gdb_34071=T pbc="F F F"
N        0.02710000      -1.09630000      -0.01200000
C        0.01690000       0.05980000      -0.00080000
C        0.00360000       1.50740000       0.01340000
C       -0.68670000       2.18440000       1.23420000
C       -0.44670000       3.62340000       0.79750000
C        0.85920000       3.64360000       0.02490000
C        1.39030000       2.21630000       0.00540000
C       -0.46300000       3.63810000      -0.71970000
C       -0.71230000       2.20790000      -1.17920000
H       -1.74540000       1.91860000       1.30400000
H       -0.19550000       1.92520000       2.17650000
H       -0.78030000       4.46860000       1.38410000
H        1.51470000       4.50380000       0.02620000
H        1.98560000       1.95850000       0.88600000
H        1.96670000       1.97570000      -0.89250000
H       -0.80900000       4.49440000      -1.28250000
H       -0.24130000       1.96710000      -2.13660000
H       -1.77230000       1.94310000      -1.23160000
