23
Properties=species:S:1:pos:R:3 gdb_115390=T pbc="F F F"
C       -0.00630000       1.38350000       0.14990000
O       -0.04420000       0.02490000      -0.21540000
C       -1.30510000      -0.60710000      -0.06140000
C       -1.20420000      -1.96380000      -0.76440000
C       -0.30160000      -2.91570000       0.03290000
C       -0.76240000      -3.00370000       1.49210000
C        0.15740000      -3.84490000       2.36390000
O       -0.81390000      -1.70450000       2.07850000
C       -1.69330000      -0.82670000       1.40940000
H        0.97110000       1.76890000      -0.15170000
H       -0.78870000       1.96460000      -0.36460000
H       -0.11780000       1.53910000       1.23260000
H       -2.08820000       0.01090000      -0.53490000
H       -2.21280000      -2.38770000      -0.85040000
H       -0.82300000      -1.81620000      -1.77910000
H       -0.30410000      -3.91500000      -0.41680000
H        0.72840000      -2.54380000       0.01380000
H       -1.78070000      -3.43690000       1.51300000
H        1.16880000      -3.42700000       2.36200000
H       -0.20380000      -3.86240000       3.39580000
H        0.20530000      -4.87330000       1.99290000
H       -1.67760000       0.11110000       1.97210000
H       -2.72930000      -1.21070000       1.43630000
