21
Properties=species:S:1:pos:R:3 gdb_116891=T pbc="F F F"
C       -0.01440000       1.54870000       0.13750000
C       -0.05700000       0.02040000       0.17020000
C       -1.48060000      -0.53220000      -0.04880000
O       -2.04220000      -0.07950000      -1.28080000
C       -1.50460000      -1.99310000       0.05630000
C       -1.50070000      -3.19640000       0.10830000
C       -1.48070000      -4.65100000       0.17830000
O       -2.76600000      -5.14510000       0.49940000
C       -2.78670000      -6.55130000       0.57860000
H        1.01100000       1.91460000       0.24380000
H       -0.42130000       1.92410000      -0.80460000
H       -0.60890000       1.97710000       0.95220000
H        0.59700000      -0.39880000      -0.60530000
H        0.31620000      -0.35840000       1.12880000
H       -2.13800000      -0.10970000       0.72240000
H       -1.63970000      -0.59820000      -1.98610000
H       -1.13920000      -5.06580000      -0.78680000
H       -0.74350000      -4.97610000       0.93390000
H       -3.80850000      -6.84520000       0.82820000
H       -2.50410000      -7.02060000      -0.37760000
H       -2.10630000      -6.92860000       1.35890000
