19
Properties=species:S:1:pos:R:3 gdb_128322=T pbc="F F F"
C        0.05460000       1.43960000      -0.05290000
N       -0.09240000      -0.00770000      -0.07570000
C        0.59610000      -0.71190000      -1.05550000
N        1.17240000      -0.09820000      -2.07910000
N        1.63220000      -1.13200000      -2.85800000
C        1.39200000      -2.34640000      -2.30490000
N        1.86610000      -3.51750000      -2.90790000
C        0.69420000      -2.13470000      -1.13180000
C        0.11080000      -3.14350000      -0.19480000
H        1.09480000       1.77250000       0.07970000
H       -0.30020000       1.85120000      -1.00080000
H       -0.55750000       1.84490000       0.75690000
H       -0.01270000      -0.43410000       0.83610000
H        2.28580000      -0.92710000      -3.59280000
H        1.56810000      -3.61230000      -3.87260000
H        1.57920000      -4.34050000      -2.39420000
H        0.71490000      -3.29710000       0.71010000
H       -0.89050000      -2.84070000       0.13360000
H        0.00530000      -4.12380000      -0.67470000
