17
Properties=species:S:1:pos:R:3 gdb_117105=T pbc="F F F"
C        0.04400000       1.08390000       0.65020000
C       -0.22830000       0.16210000      -0.53920000
N       -1.47580000      -0.58630000      -0.40130000
C       -1.51850000      -1.87280000      -0.01380000
O       -0.55220000      -2.58490000       0.20470000
C       -2.93330000      -2.52130000       0.11130000
O       -2.80320000      -3.78610000       0.67650000
C       -3.83490000      -1.65460000       0.89360000
N       -4.53060000      -0.92840000       1.46330000
H        0.97820000       1.63190000       0.49440000
H       -0.75910000       1.81690000       0.77870000
H        0.13230000       0.50720000       1.57480000
H       -0.27570000       0.73700000      -1.47020000
H        0.56570000      -0.57950000      -0.64400000
H       -2.34500000      -0.07340000      -0.43050000
H       -3.35330000      -2.58550000      -0.90640000
H       -1.83790000      -3.90640000       0.76200000
