18
Properties=species:S:1:pos:R:3 gdb_39384=T pbc="F F F"
C        0.08220000       1.36130000      -0.30650000
C        1.45090000       2.06030000      -0.21030000
C        2.59710000       1.14110000      -0.54770000
O        3.85040000       1.35730000       0.11400000
C        3.10600000       0.18090000       0.43760000
C        2.51230000       0.13040000       1.82410000
O        1.42710000      -0.78890000       1.90770000
C        0.21710000      -0.59260000       1.29660000
N       -0.28960000       0.22000000       0.48860000
H       -0.69030000       2.12080000      -0.13090000
H       -0.06900000       1.05110000      -1.35090000
H        1.43580000       2.90100000      -0.91490000
H        1.60090000       2.49550000       0.78080000
H        2.69650000       0.87610000      -1.60120000
H        3.54680000      -0.75310000       0.08870000
H        3.24760000      -0.24700000       2.54020000
H        2.20590000       1.12740000       2.15170000
H       -0.41390000      -1.40590000       1.66380000
