21
Properties=species:S:1:pos:R:3 gdb_120705=T pbc="F F F"
C       -0.20160000       1.52040000      -0.15970000
C       -0.28110000       0.06740000       0.27330000
O       -1.19150000      -0.60150000      -0.59030000
C       -1.36500000      -1.94120000      -0.29050000
C       -2.23200000      -2.37260000       0.85020000
C       -2.72960000      -2.54720000      -0.57310000
C       -3.82540000      -1.63570000      -1.04840000
C       -4.39780000      -1.96020000      -2.41550000
O       -4.21910000      -0.69830000      -0.39200000
H        0.48750000       2.07220000       0.48650000
H        0.15330000       1.59610000      -1.19140000
H       -1.18800000       1.98840000      -0.10050000
H        0.70980000      -0.41240000       0.21790000
H       -0.62590000      -0.01390000       1.31470000
H       -0.50580000      -2.57040000      -0.53300000
H       -1.96080000      -3.25450000       1.41900000
H       -2.74580000      -1.58680000       1.39380000
H       -2.71700000      -3.53600000      -1.01990000
H       -4.83400000      -2.96600000      -2.41610000
H       -5.16140000      -1.22910000      -2.68280000
H       -3.60030000      -1.95800000      -3.16720000
