15
Properties=species:S:1:pos:R:3 gdb_30005=T pbc="F F F"
C       -0.01400000       1.48430000       0.00290000
N       -0.00710000       0.03990000       0.04080000
C       -0.03570000      -0.83110000      -1.05310000
N       -0.02080000      -2.10380000      -0.73750000
C        0.02020000      -2.09440000       0.63800000
C        0.02900000      -0.80220000       1.11610000
N        0.06920000      -0.87790000       2.48120000
C        0.08300000      -2.24930000       2.74770000
N        0.05430000      -3.00040000       1.67340000
H        0.88920000       1.89860000       0.46440000
H       -0.04620000       1.80710000      -1.03950000
H       -0.89170000       1.89150000       0.51710000
H       -0.06720000      -0.42750000      -2.05510000
H        0.08730000      -0.14020000       3.16290000
H        0.11460000      -2.60540000       3.76650000
