18
Properties=species:S:1:pos:R:3 gdb_59825=T pbc="F F F"
C        0.22530000       1.44860000       0.31400000
C       -0.01420000      -0.05680000       0.42320000
O       -0.41450000      -0.43360000       1.73100000
C       -1.02600000      -0.54300000      -0.64210000
C       -1.25750000      -1.97880000      -0.60650000
C       -1.43410000      -3.17040000      -0.57120000
C       -1.67580000      -4.60540000      -0.55940000
N       -1.16800000      -5.23210000       0.54340000
O       -2.26260000      -5.18950000      -1.45030000
H        0.93060000       1.77170000       1.08360000
H        0.63080000       1.71940000      -0.66610000
H       -0.71150000       2.00320000       0.45300000
H        0.93000000      -0.58880000       0.26210000
H       -1.22230000       0.04690000       1.94540000
H       -1.97940000      -0.01480000      -0.49400000
H       -0.67170000      -0.25130000      -1.63920000
H       -0.76950000      -4.70870000       1.30330000
H       -1.35330000      -6.21510000       0.65840000
