19
Properties=species:S:1:pos:R:3 gdb_39106=T pbc="F F F"
C       -0.05100000       1.54390000       0.12170000
C        1.48370000       1.79090000       0.06690000
C        1.93130000       0.31770000      -0.08290000
C        3.29700000       0.04920000      -0.66430000
O        3.03400000       0.28010000      -2.07670000
C        1.60660000       0.24960000      -2.40100000
C        1.01950000      -0.31020000      -1.12200000
C        0.00940000       0.01320000       0.02010000
O        1.10860000      -0.32330000       0.96000000
H       -0.50570000       1.86370000       1.06120000
H       -0.60170000       2.00090000      -0.70520000
H        1.80550000       2.42870000      -0.75880000
H        1.87940000       2.20420000       0.99720000
H        4.08460000       0.74700000      -0.36570000
H        3.63460000      -0.98010000      -0.49040000
H        1.27060000       1.26200000      -2.65400000
H        1.48100000      -0.39180000      -3.27760000
H        1.18080000      -1.39090000      -1.09240000
H       -0.88950000      -0.57940000       0.18590000
