20
Properties=species:S:1:pos:R:3 gdb_70297=T pbc="F F F"
C       -0.00650000       1.50700000      -0.01680000
C       -0.04580000       0.00260000       0.06200000
C       -1.33070000      -0.72710000      -0.32310000
C       -1.13940000      -2.13490000       0.23020000
C       -2.05520000      -3.24940000      -0.01340000
O       -0.82480000      -3.15660000      -0.73690000
C       -0.19940000      -2.03870000       1.42900000
C        0.63730000      -0.80830000       1.11740000
N        1.21330000      -0.70270000      -0.23220000
H        0.96170000       1.88140000       0.32410000
H       -0.15290000       1.84910000      -1.04780000
H       -0.79360000       1.95580000       0.59990000
H       -2.19070000      -0.23590000       0.15090000
H       -1.51330000      -0.75230000      -1.40240000
H       -2.11520000      -4.06760000       0.70390000
H       -2.95750000      -3.08950000      -0.60310000
H       -0.76320000      -1.88340000       2.35800000
H        0.38520000      -2.95740000       1.53910000
H        1.22600000      -0.35410000       1.90950000
H        1.05400000      -1.55420000      -0.76720000
