14
Properties=species:S:1:pos:R:3 gdb_131098=T pbc="F F F"
O       -0.01970000       1.44780000      -0.00380000
C        0.06550000       0.02370000       0.00700000
C        0.67500000      -0.49490000      -1.22000000
C        1.19570000      -0.86890000      -2.23580000
C        0.78640000      -0.45260000       1.24690000
C        1.18500000       0.29530000       2.32830000
N        1.73940000      -0.61880000       3.15870000
N        1.68960000      -1.85820000       2.63710000
N        1.11050000      -1.75640000       1.47600000
H        0.80740000       1.77870000      -0.37170000
H       -0.97510000      -0.32290000       0.05370000
H        1.64900000      -1.21890000      -3.13040000
H        1.11020000       1.34300000       2.55930000
H        2.15950000      -0.48190000       4.06420000
