21
Properties=species:S:1:pos:R:3 gdb_65926=T pbc="F F F"
O       -0.33930000       1.57750000      -0.02880000
C        0.04830000       0.22080000      -0.00950000
C        1.09610000      -0.25060000      -1.06770000
C        1.79610000      -1.07800000       0.04400000
C        1.04090000      -0.23540000       1.10700000
C       -1.22900000      -0.60400000      -0.03610000
C       -2.34630000      -0.24300000       0.97120000
O       -3.29860000      -0.04120000      -0.09240000
C       -2.29370000      -0.25740000      -1.10360000
H        0.45480000       2.12040000      -0.01240000
H        0.72580000      -0.77350000      -1.95350000
H        1.71530000       0.59080000      -1.39650000
H        1.48110000      -2.12440000       0.04330000
H        2.88680000      -1.05010000       0.07150000
H        1.64280000       0.61070000       1.45520000
H        0.62590000      -0.74610000       1.98010000
H       -0.97170000      -1.66570000      -0.02220000
H       -2.66080000      -1.03970000       1.65620000
H       -2.16360000       0.67700000       1.53790000
H       -2.08230000       0.65470000      -1.67300000
H       -2.57350000      -1.06370000      -1.79250000
