16
Properties=species:S:1:pos:R:3 gdb_126452=T pbc="F F F"
C       -0.23080000       1.54770000       0.04590000
C       -0.07790000       0.03600000      -0.10470000
C        0.82380000      -0.41950000      -1.21870000
N        1.39010000       0.47160000      -1.95130000
O        2.22880000       0.01060000      -2.98470000
C        2.42870000      -1.32860000      -3.19510000
N        3.17670000      -1.77800000      -4.11630000
C        1.71820000      -2.22260000      -2.28210000
N        0.95430000      -1.81410000      -1.34040000
H        0.73290000       2.02590000       0.23840000
H       -0.64250000       1.99630000      -0.86170000
H       -0.90190000       1.77390000       0.87890000
H        0.30670000      -0.41540000       0.81940000
H       -1.05160000      -0.44440000      -0.26830000
H        3.59300000      -1.01820000      -4.65830000
H        1.86860000      -3.28900000      -2.43870000
