13
Properties=species:S:1:pos:R:3 gdb_25302=T pbc="F F F"
O       -0.85900000       1.29840000       0.19070000
C        0.26050000       0.95870000      -0.09010000
C        1.46990000       1.89490000      -0.23410000
O        2.53030000       1.37190000      -0.52460000
C        1.30610000       3.32840000      -0.02400000
C        0.17280000       4.02990000       0.30400000
O        0.44720000       5.34090000       0.40560000
C        1.78320000       5.50170000       0.13970000
C        2.35780000       4.30930000      -0.12890000
H        0.54720000      -0.09680000      -0.28040000
H       -0.84360000       3.72810000       0.48430000
H        2.14360000       6.51530000       0.18650000
H        3.38820000       4.11060000      -0.37340000
