16
Properties=species:S:1:pos:R:3 gdb_45108=T pbc="F F F"
O       -0.20070000       0.28420000       0.76850000
C       -0.07110000       1.27580000       0.10930000
O       -1.13500000       1.79120000      -0.58490000
C       -1.27080000       3.18820000      -0.72850000
C       -1.14590000       4.04260000       0.49740000
C       -0.05750000       4.06680000      -0.56150000
C        1.23730000       3.32810000      -0.42520000
C        1.78490000       2.78460000       0.85800000
N        1.15210000       1.90610000      -0.12140000
H       -2.01780000       3.40110000      -1.48260000
H       -1.77140000       4.92290000       0.59140000
H       -0.96140000       3.52670000       1.43460000
H       -0.00530000       4.95540000      -1.18040000
H        1.95380000       3.55320000      -1.21230000
H        2.85620000       2.65250000       0.97580000
H        1.24300000       2.98690000       1.77740000
