18
Properties=species:S:1:pos:R:3 gdb_88918=T pbc="F F F"
C       -0.04470000       1.54900000      -0.15090000
C        0.03250000       0.04970000       0.01470000
N        1.36700000      -0.57060000      -0.03820000
C        0.58900000      -0.64190000       1.20990000
C        1.16590000       0.07700000       2.40500000
C        2.00400000      -0.83770000       3.28820000
O        2.09170000      -2.03420000       3.12010000
C        2.69250000      -0.17220000       4.38390000
C        3.25370000       0.40050000       5.28180000
H        0.79820000       2.04910000       0.33120000
H       -0.02430000       1.81720000      -1.21260000
H       -0.97380000       1.94190000       0.27650000
H       -0.77400000      -0.48840000      -0.48350000
H        1.34040000      -1.46070000      -0.52700000
H        0.14530000      -1.60240000       1.45940000
H        1.79160000       0.92030000       2.09610000
H        0.37490000       0.50180000       3.04060000
H        3.75790000       0.88810000       6.08060000
