19
Properties=species:S:1:pos:R:3 gdb_90790=T pbc="F F F"
C       -0.09740000       1.58340000       0.00600000
C        0.02160000       0.05960000      -0.01530000
C        0.83970000      -0.51260000      -1.20820000
C        1.60760000      -1.69240000      -0.61370000
C        1.20230000      -1.96050000       0.78880000
C        2.62970000      -1.41470000       0.50240000
C        2.24710000      -0.17850000       1.24440000
O        2.87550000       0.66270000       1.82860000
C        0.73840000      -0.53870000       1.21440000
H        0.88770000       2.05440000       0.08560000
H       -0.57800000       1.95250000      -0.90590000
H       -0.69600000       1.92150000       0.85820000
H       -0.98610000      -0.37500000      -0.04800000
H        0.18580000      -0.84160000      -2.02160000
H        1.52030000       0.23850000      -1.62450000
H        1.89140000      -2.52360000      -1.25060000
H        0.94520000      -2.90630000       1.24300000
H        3.58680000      -1.92160000       0.52390000
H        0.22160000      -0.40750000       2.16550000
