19
Properties=species:S:1:pos:R:3 gdb_88059=T pbc="F F F"
C       -0.10710000       1.35060000      -0.24180000
C       -0.05550000      -0.12600000       0.06110000
N        1.26460000      -0.78640000      -0.05860000
C        0.64560000      -0.67560000       1.24510000
C        1.23970000       0.01850000       2.47200000
N        0.48810000      -0.94040000       3.32930000
C        0.18580000      -1.82130000       2.18160000
C       -1.26510000      -2.21650000       2.03790000
O       -1.65850000      -3.01420000       1.22290000
H        0.79330000       1.85300000       0.12170000
H       -0.17440000       1.52180000      -1.32110000
H       -0.98000000       1.81470000       0.22970000
H       -0.91410000      -0.70140000      -0.28200000
H        1.16640000      -1.73110000      -0.42430000
H        2.33190000      -0.08220000       2.51120000
H        0.97100000       1.06700000       2.63890000
H        1.03470000      -1.37300000       4.06450000
H        0.82050000      -2.71240000       2.07250000
H       -1.95260000      -1.66320000       2.71600000
