18
Properties=species:S:1:pos:R:3 gdb_71262=T pbc="F F F"
C       -0.06770000       1.52950000       0.07300000
C       -0.03350000       0.02460000       0.02010000
C        0.30880000      -0.68950000      -1.33220000
C       -0.89790000      -1.57120000      -1.05880000
C       -0.95220000      -2.06640000       0.34050000
C        0.28030000      -2.09080000       1.21500000
C        0.80610000      -0.65370000       1.09830000
O        1.70960000      -0.16040000       1.71980000
N       -1.39710000      -0.67050000       0.05120000
H        0.95210000       1.92550000       0.05800000
H       -0.62540000       1.94020000      -0.77280000
H       -0.54760000       1.86680000       0.99660000
H        0.13110000      -0.01080000      -2.16930000
H        1.29210000      -1.15510000      -1.45440000
H       -1.57410000      -1.95780000      -1.81560000
H       -1.77380000      -2.73380000       0.57900000
H        0.03100000      -2.30470000       2.25940000
H        1.05070000      -2.80700000       0.91090000
