19
Properties=species:S:1:pos:R:3 gdb_72214=T pbc="F F F"
C       -0.02820000       1.50920000      -0.08160000
C       -0.05380000       0.01780000      -0.02290000
O        0.72330000      -0.69940000      -0.97930000
C       -0.26610000      -1.77860000      -0.99280000
C        0.36870000      -3.08420000      -0.53680000
C        0.92240000      -2.96150000       0.86180000
C        0.64790000      -1.92390000       1.65470000
C       -0.25960000      -0.82800000       1.24160000
C       -1.13760000      -1.02110000       0.01940000
H        0.98190000       1.88300000       0.12000000
H       -0.33090000       1.86600000      -1.07150000
H       -0.70350000       1.93550000       0.66560000
H       -0.71610000      -1.85960000      -1.98750000
H       -0.35910000      -3.90680000      -0.60900000
H        1.17610000      -3.33570000      -1.23720000
H        1.57780000      -3.75560000       1.20830000
H        1.08990000      -1.86040000       2.64510000
H       -0.73270000      -0.26490000       2.04130000
H       -2.21700000      -0.94730000       0.01650000
