16
Properties=species:S:1:pos:R:3 gdb_125263=T pbc="F F F"
C       -0.08830000       1.47270000       0.08100000
C        0.02380000      -0.00790000      -0.07800000
C       -0.03300000      -0.81460000      -1.19830000
C        0.14900000      -2.11930000      -0.69590000
O        0.17860000      -3.23040000      -1.47950000
C       -0.00740000      -4.44660000      -0.89320000
N        0.15700000      -5.48090000      -1.59330000
N        0.31320000      -2.15140000       0.61680000
N        0.22200000      -0.84470000       0.97150000
H        0.84530000       1.91280000       0.44970000
H       -0.31820000       1.93570000      -0.88030000
H       -0.88350000       1.74540000       0.78370000
H       -0.18640000      -0.51620000      -2.22140000
H       -0.29880000      -4.37700000       0.15670000
H       -0.04270000      -6.30710000      -1.03240000
H        0.32820000      -0.60180000       1.94140000
