20
Properties=species:S:1:pos:R:3 gdb_13145=T pbc="F F F"
C        0.05610000       1.37220000       0.18780000
O        0.00980000      -0.02760000       0.04990000
C       -1.30760000      -0.53600000       0.02880000
C       -1.21250000      -2.04640000      -0.07850000
C       -0.78880000      -2.76260000       1.21890000
O       -2.11490000      -3.30240000       1.40580000
C       -2.52500000      -2.86180000       0.08920000
C       -3.88360000      -2.18760000       0.09500000
H        1.10840000       1.66650000       0.19440000
H       -0.45030000       1.88250000      -0.64710000
H       -0.41280000       1.70690000       1.12680000
H       -1.84260000      -0.24240000       0.94780000
H       -1.87020000      -0.11660000      -0.82340000
H       -0.62480000      -2.30050000      -0.96340000
H       -0.03930000      -3.55350000       1.08590000
H       -0.48260000      -2.11720000       2.05000000
H       -2.54980000      -3.71730000      -0.60290000
H       -3.90610000      -1.32320000       0.76370000
H       -4.15930000      -1.86260000      -0.91410000
H       -4.64150000      -2.89850000       0.43920000
