20
Properties=species:S:1:pos:R:3 gdb_112288=T pbc="F F F"
C       -0.15490000       1.53360000       0.09670000
C        0.03130000       0.01480000       0.03780000
C        0.71980000      -0.46630000      -1.23790000
C        1.00070000      -1.98050000      -1.31050000
C        0.85970000      -2.31600000      -2.80410000
O        1.34800000      -3.25180000      -3.38330000
C        0.05340000      -1.21110000      -3.41970000
C       -1.22810000      -0.91440000      -2.70260000
N       -0.05310000      -0.09060000      -2.46580000
H        0.81100000       2.04940000       0.06290000
H       -0.74830000       1.88900000      -0.74960000
H       -0.65980000       1.83090000       1.02060000
H        0.62970000      -0.32200000       0.89340000
H       -0.94110000      -0.48670000       0.13220000
H        1.67280000       0.06730000      -1.34160000
H        1.99630000      -2.25530000      -0.95850000
H        0.28200000      -2.57690000      -0.73490000
H        0.16940000      -0.99890000      -4.47680000
H       -2.02670000      -0.42940000      -3.25570000
H       -1.56570000      -1.61290000      -1.94060000
