19
Properties=species:S:1:pos:R:3 gdb_8236=T pbc="F F F"
C        0.83790000       0.54490000      -0.88530000
C        0.36750000      -0.44630000       0.18960000
C       -0.39940000       0.25110000       1.32300000
N       -0.39660000      -1.56120000      -0.38690000
C       -1.48250000      -1.39030000      -0.97560000
C       -2.48120000      -2.30510000      -1.65850000
C       -3.25510000      -0.99810000      -1.92180000
O       -2.21840000      -0.23350000      -1.23780000
H        1.51060000       1.28910000      -0.44600000
H        1.38020000       0.02210000      -1.67880000
H       -0.01120000       1.06760000      -1.33380000
H        1.26100000      -0.90550000       0.62940000
H       -0.72440000      -0.47750000       2.07180000
H        0.24360000       0.98570000       1.81920000
H       -1.28250000       0.76820000       0.93810000
H       -2.09850000      -2.82170000      -2.54020000
H       -2.96670000      -3.02550000      -0.99810000
H       -3.34460000      -0.68930000      -2.96630000
H       -4.21750000      -0.89390000      -1.41450000
