19
Properties=species:S:1:pos:R:3 gdb_95384=T pbc="F F F"
O       -0.47380000       1.45790000       0.44530000
C       -0.06680000       0.14260000       0.09300000
C        0.68540000      -0.54710000       1.24380000
C       -0.42830000      -0.87410000       2.25560000
C       -1.59950000      -1.34660000       1.36810000
O       -2.88440000      -0.86300000       1.73440000
C       -3.16910000       0.22900000       0.88300000
O       -2.53680000      -0.03970000      -0.35180000
C       -1.34490000      -0.72960000      -0.04460000
H        0.31860000       1.96660000       0.64380000
H        0.51250000       0.15890000      -0.84030000
H        1.15710000      -1.46670000       0.87390000
H        1.48460000       0.07940000       1.65450000
H       -0.13340000      -1.61640000       3.00060000
H       -0.73300000       0.03260000       2.78510000
H       -1.66140000      -2.43840000       1.33910000
H       -4.25030000       0.28210000       0.72300000
H       -2.78890000       1.16860000       1.30780000
H       -1.18790000      -1.48870000      -0.81590000
