13
Properties=species:S:1:pos:R:3 gdb_27709=T pbc="F F F"
N        0.12020000       1.39050000       0.15690000
C        0.02760000       0.02640000       0.05620000
C       -1.09370000      -0.76630000       0.02250000
O       -0.61510000      -2.09910000      -0.01260000
C        0.71220000      -1.95980000      -0.00370000
O        1.44610000      -3.06500000      -0.03810000
N        1.17330000      -0.75040000       0.03490000
C       -2.46090000      -0.51250000       0.01660000
C       -3.64150000      -0.25490000       0.00340000
H        0.99130000       1.76900000      -0.18400000
H       -0.69510000       1.90490000      -0.14030000
H        0.85200000      -3.82570000      -0.06400000
H       -4.67950000      -0.03350000       0.01080000
