17
Properties=species:S:1:pos:R:3 gdb_65942=T pbc="F F F"
C       -0.35110000       1.54790000       0.10920000
C        0.04380000       0.07470000       0.05980000
N        1.30480000      -0.20500000      -0.69200000
C        1.81200000      -1.12360000       0.36480000
C        0.74560000      -0.55420000       1.29610000
C        0.82910000      -0.04270000       2.66090000
O        0.10340000      -1.24260000       2.32970000
C       -1.08380000      -0.75810000      -0.38760000
N       -1.95000000      -1.41380000      -0.78380000
H        0.50610000       2.13820000       0.44000000
H       -0.65200000       1.89590000      -0.88300000
H       -1.19050000       1.70370000       0.79360000
H        1.16400000      -0.63160000      -1.60130000
H        1.64680000      -2.19080000       0.17030000
H        2.86040000      -0.95960000       0.63000000
H        1.74150000      -0.19450000       3.23520000
H        0.21330000       0.80020000       2.96810000
