19
Properties=species:S:1:pos:R:3 gdb_93252=T pbc="F F F"
C       -0.06740000       1.42360000      -0.09170000
N        0.01410000      -0.01000000       0.11080000
C       -1.24510000      -0.73550000       0.12280000
C       -1.08980000      -2.14180000       0.69110000
O       -2.31420000      -2.81020000       0.44980000
C        0.09040000      -2.82700000       0.00170000
N        1.26030000      -1.99170000       0.17700000
C        1.25440000      -0.61390000       0.04660000
O        2.29800000       0.01040000      -0.06820000
H        0.94510000       1.82350000      -0.09420000
H       -0.55360000       1.66620000      -1.04730000
H       -0.64660000       1.89200000       0.71350000
H       -1.96900000      -0.17840000       0.72860000
H       -1.67430000      -0.81820000      -0.88880000
H       -0.87400000      -2.07150000       1.76740000
H       -2.30090000      -3.64690000       0.92450000
H        0.28000000      -3.80730000       0.45460000
H       -0.17110000      -2.99610000      -1.05500000
H        2.17030000      -2.38130000      -0.00970000
