18
Properties=species:S:1:pos:R:3 gdb_79862=T pbc="F F F"
O        0.12420000       1.41440000      -0.10940000
C        0.08590000       0.02530000      -0.04570000
C        0.02740000      -0.66050000       1.33980000
N       -1.40720000      -0.15000000       1.46560000
C       -2.15460000      -1.18030000       2.23940000
C       -1.60600000      -2.51590000       1.69020000
C       -0.61980000      -1.93020000       0.67640000
O        0.09020000      -2.79260000      -0.15510000
C       -1.28850000      -0.68520000       0.03570000
H       -0.52380000       1.71980000       0.54090000
H        0.79910000      -0.38180000      -0.76050000
H        0.72340000      -0.59940000       2.18020000
H       -1.96340000      -1.03550000       3.30630000
H       -3.22650000      -1.05110000       2.06710000
H       -1.10240000      -3.12570000       2.44890000
H       -2.36260000      -3.13820000       1.20370000
H        0.51310000      -3.46590000       0.38810000
H       -2.13420000      -0.65280000      -0.65470000
