19
Properties=species:S:1:pos:R:3 gdb_61898=T pbc="F F F"
C        0.16760000       1.80720000      -0.00990000
C        0.04710000       0.27700000       0.06320000
C        0.63940000      -0.43950000      -1.16780000
C       -0.06900000      -0.07550000      -2.48840000
C        0.43150000      -0.85900000      -3.61590000
N        0.83340000      -1.48840000      -4.49770000
C        0.81320000      -0.21760000       1.29730000
N        0.08560000      -0.94250000       2.19340000
O        1.99610000       0.01810000       1.45170000
H        1.22060000       2.09380000      -0.07180000
H       -0.36460000       2.21600000      -0.87320000
H       -0.25430000       2.27260000       0.88600000
H       -1.01290000       0.00270000       0.15160000
H        1.70400000      -0.19840000      -1.23690000
H        0.57180000      -1.52320000      -1.02320000
H       -1.14910000      -0.24760000      -2.40370000
H        0.06310000       0.98510000      -2.72440000
H       -0.89450000      -1.12590000       2.07530000
H        0.55000000      -1.28990000       3.01710000
