18
Properties=species:S:1:pos:R:3 gdb_70827=T pbc="F F F"
C        0.02990000       1.44170000      -0.05790000
C        0.01460000      -0.05620000      -0.02880000
N        0.64520000      -0.92270000      -1.08810000
C        0.06070000      -1.90820000      -0.12150000
C        0.50330000      -1.04040000       1.10350000
O        1.71380000      -1.04440000       1.75000000
C       -0.86720000      -1.09820000       1.78680000
C       -1.17920000      -1.02320000       0.26840000
O       -2.39260000      -0.92250000      -0.37820000
H        1.05650000       1.81420000      -0.13420000
H       -0.53900000       1.82700000      -0.91090000
H       -0.41600000       1.85060000       0.85480000
H        0.08550000      -0.89320000      -1.94470000
H        0.12550000      -2.99060000      -0.24320000
H        2.39770000      -1.01190000       1.06850000
H       -1.11460000      -2.03350000       2.29870000
H       -1.15200000      -0.23270000       2.39170000
H       -2.92070000      -1.70140000      -0.17130000
