18
Properties=species:S:1:pos:R:3 gdb_94598=T pbc="F F F"
C       -0.20660000       1.56650000       0.03360000
C        0.09170000       0.08190000      -0.03250000
O        1.35910000      -0.20650000      -0.67450000
C        1.86640000      -0.88090000       0.49750000
C        0.55110000      -0.64420000       1.25280000
O        0.61780000       0.22090000       2.38250000
C        1.13450000      -0.35310000       3.50210000
N        1.16820000       0.55640000       4.51750000
O        1.52980000      -1.49380000       3.56330000
H        0.57410000       2.10040000       0.57940000
H       -0.26340000       1.96910000      -0.98220000
H       -1.16590000       1.74630000       0.52990000
H       -0.72350000      -0.44680000      -0.54500000
H        2.11690000      -1.92910000       0.30270000
H        2.73570000      -0.37170000       0.92870000
H       -0.00100000      -1.54590000       1.51890000
H        0.63540000       1.40510000       4.43620000
H        1.36080000       0.19730000       5.43630000
