20
Properties=species:S:1:pos:R:3 gdb_69554=T pbc="F F F"
C       -0.02900000       1.54460000       0.05820000
C        0.13060000       0.05710000       0.00410000
N       -0.80780000      -0.85270000       0.71060000
C        0.64640000      -0.92980000       0.99750000
C        1.30090000      -1.77310000      -0.13110000
O        2.68880000      -1.91800000      -0.02930000
C        0.45920000      -2.91570000      -0.77840000
C       -0.11840000      -1.89010000      -1.80720000
C        0.74290000      -0.76060000      -1.16790000
H        0.88470000       2.05040000      -0.27140000
H       -0.84810000       1.88000000      -0.58960000
H       -0.24930000       1.88020000       1.07810000
H       -1.23410000      -0.31520000       1.46560000
H        1.02640000      -0.78960000       2.00460000
H        2.87170000      -2.55270000       0.67320000
H        1.10760000      -3.66800000      -1.23490000
H       -0.27230000      -3.39970000      -0.12950000
H        0.15160000      -2.10550000      -2.84330000
H       -1.19500000      -1.73440000      -1.73770000
H        1.43330000      -0.20280000      -1.80060000
