16
Properties=species:S:1:pos:R:3 gdb_14953=T pbc="F F F"
O       -0.88850000       1.15550000       0.04430000
C        0.24370000       0.74810000       0.03030000
C        1.46060000       1.65490000       0.00440000
C        1.33520000       2.83950000       0.96870000
O        2.52750000       3.60380000       0.95750000
C        3.64970000       2.80440000       1.29890000
C        3.78160000       1.62920000       0.33610000
O        2.58670000       0.85760000       0.32590000
H        0.49280000      -0.33550000       0.03320000
H        1.56140000       2.05560000      -1.02180000
H        0.51750000       3.49420000       0.66220000
H        1.12700000       2.46210000       1.98280000
H        4.52930000       3.45260000       1.24650000
H        3.54910000       2.42640000       2.32940000
H        3.99490000       2.00410000      -0.67780000
H        4.58880000       0.95690000       0.64080000
