20
Properties=species:S:1:pos:R:3 gdb_118657=T pbc="F F F"
C        0.21620000       1.49190000      -0.45140000
C        0.36170000       0.00910000      -0.16350000
O        0.55450000      -0.66710000      -1.40500000
C        0.64850000      -2.06790000      -1.30350000
C        0.62260000      -2.68170000      -2.71680000
O        1.80500000      -2.52420000      -3.44730000
C        1.97900000      -1.25730000      -4.06240000
C        1.86320000      -2.48310000      -0.56450000
N        2.79700000      -2.79050000       0.04230000
H        1.11870000       1.88090000      -0.93070000
H       -0.63400000       1.67610000      -1.11400000
H        0.05600000       2.04090000       0.48100000
H        1.21490000      -0.17980000       0.50300000
H       -0.54020000      -0.38660000       0.33040000
H       -0.21940000      -2.46880000      -0.75080000
H        0.46330000      -3.76000000      -2.61030000
H       -0.24430000      -2.24660000      -3.23760000
H        1.11660000      -1.00420000      -4.69720000
H        2.11810000      -0.45840000      -3.32730000
H        2.86970000      -1.33800000      -4.68950000
