11
Properties=species:S:1:pos:R:3 gdb_21666=T pbc="F F F"
N       -0.05820000       1.36240000       0.15520000
C        0.00680000      -0.00230000       0.04650000
N       -1.07080000      -0.78680000       0.03090000
N       -0.54430000      -2.01790000      -0.01540000
N        0.76000000      -2.11610000      -0.03780000
C        1.16000000      -0.83320000       0.00070000
C        2.51430000      -0.42790000      -0.01500000
N        3.59780000      -0.01850000      -0.03210000
H        0.74140000       1.86730000      -0.19580000
H       -0.94320000       1.76820000      -0.10960000
H       -1.13310000      -2.83530000      -0.03360000
