17
Properties=species:S:1:pos:R:3 gdb_9211=T pbc="F F F"
C        0.02130000       1.47040000       0.13960000
N       -0.10760000       0.02980000       0.25150000
C       -1.21670000      -0.64470000      -0.16010000
O       -2.19740000      -0.09730000      -0.63280000
C       -1.13340000      -2.16680000      -0.01430000
C       -2.50640000      -2.77080000       0.30830000
C       -2.56060000      -4.24940000       0.01480000
O       -2.92840000      -5.09950000       0.78340000
H        0.85210000       1.74740000      -0.51880000
H       -0.91010000       1.84720000      -0.28400000
H        0.18180000       1.93140000       1.12020000
H        0.65900000      -0.49500000       0.63810000
H       -0.77720000      -2.55740000      -0.97790000
H       -0.38910000      -2.45570000       0.73570000
H       -2.79440000      -2.60070000       1.34890000
H       -3.23780000      -2.26350000      -0.33560000
H       -2.22510000      -4.51750000      -1.01680000
