21
Properties=species:S:1:pos:R:3 gdb_89217=T pbc="F F F"
C       -0.04580000       1.45740000       0.03600000
C        0.01160000      -0.05050000      -0.01630000
C        1.05320000      -0.72310000      -0.91220000
C        0.38040000      -2.05470000      -1.35150000
O        1.24540000      -3.17780000      -1.39060000
C       -0.70820000      -2.27280000      -0.29880000
C       -0.09750000      -2.29110000       1.13970000
C       -0.40910000      -0.79750000       1.24380000
C       -1.26740000      -0.85460000      -0.01350000
H        0.87760000       1.87800000       0.45130000
H       -0.18290000       1.88430000      -0.96460000
H       -0.87600000       1.80210000       0.66160000
H        1.29900000      -0.08860000      -1.77120000
H        1.98960000      -0.93560000      -0.38340000
H       -0.10160000      -1.91010000      -2.33230000
H        1.93470000      -3.00340000      -2.03840000
H       -1.40150000      -3.07750000      -0.54060000
H       -0.71860000      -2.87290000       1.82520000
H        0.94140000      -2.62170000       1.23240000
H       -0.59780000      -0.24890000       2.16060000
H       -2.25770000      -0.46530000      -0.21230000
