19
Properties=species:S:1:pos:R:3 gdb_6920=T pbc="F F F"
C       -0.02130000       1.56400000      -0.22810000
C       -0.00350000       0.05640000      -0.05280000
C       -1.28500000      -0.63390000      -0.47840000
C        1.29510000      -0.67230000      -0.17830000
N        0.63330000      -0.55460000       1.12180000
C        1.26410000       0.25930000       2.14440000
C        2.00170000      -0.63470000       3.13190000
O        2.95090000      -0.28310000       3.78170000
H        0.92980000       2.03090000       0.03610000
H       -0.23470000       1.81560000      -1.27220000
H       -0.80830000       2.01990000       0.38410000
H       -1.48070000      -0.47040000      -1.54410000
H       -1.22260000      -1.70880000      -0.29430000
H       -2.14160000      -0.24330000       0.08300000
H        1.33480000      -1.67200000      -0.60410000
H        2.19010000      -0.07370000      -0.34570000
H        1.96740000       1.02540000       1.78610000
H        0.48110000       0.77800000       2.71780000
H        1.56980000      -1.65660000       3.21400000
