20
Properties=species:S:1:pos:R:3 gdb_61017=T pbc="F F F"
C       -0.28800000      -0.61620000       1.38820000
N       -0.00880000       0.02220000       0.11150000
C        0.37420000       1.33510000       0.10760000
O        0.51100000       2.03880000       1.08610000
C       -0.11880000      -0.71050000      -1.13170000
C        0.77500000      -1.96790000      -1.43650000
C       -0.48370000      -2.69360000      -1.93140000
C       -1.43800000      -2.86660000      -0.79340000
C       -1.37150000      -1.52360000      -1.47780000
H       -1.33900000      -0.91220000       1.46170000
H        0.33680000      -1.50480000       1.52860000
H       -0.06200000       0.10940000       2.16960000
H        0.55300000       1.70450000      -0.92130000
H        0.04880000       0.01940000      -1.92800000
H        1.52860000      -1.76700000      -2.20020000
H        1.26670000      -2.43500000      -0.57790000
H       -0.55420000      -3.26700000      -2.84620000
H       -2.34020000      -3.42730000      -1.01630000
H       -1.06600000      -3.01900000       0.21540000
H       -2.24700000      -1.10770000      -1.96300000
