19
Properties=species:S:1:pos:R:3 gdb_37528=T pbc="F F F"
C       -0.05440000       1.60680000      -0.10230000
C        1.43590000       2.02460000       0.06060000
C        2.17470000       0.71230000       0.37070000
C        1.81480000       0.13640000       1.75750000
O        2.41380000      -1.18960000       1.72700000
C        1.36460000      -1.48610000       0.79470000
C        0.39220000      -0.46360000       1.42170000
C       -0.00490000       0.08240000       0.03160000
C        1.41430000      -0.42090000      -0.37970000
H       -0.70290000       2.05730000       0.65640000
H       -0.44790000       1.90900000      -1.07800000
H        1.82110000       2.46570000      -0.86390000
H        1.58470000       2.76860000       0.85030000
H        3.25430000       0.74930000       0.21860000
H        2.04470000       0.70630000       2.65760000
H        1.18880000      -2.54250000       0.59920000
H       -0.29620000      -0.67950000       2.23720000
H       -0.84500000      -0.46140000      -0.40500000
H        1.68970000      -0.66040000      -1.40510000
