19
Properties=species:S:1:pos:R:3 gdb_95792=T pbc="F F F"
O        0.05930000       1.39720000       0.09810000
C        0.01100000       0.00080000       0.00080000
C       -1.44020000      -0.52900000       0.00070000
C       -1.48110000      -2.04870000      -0.20700000
C       -0.79280000      -2.45370000      -1.51710000
C        0.67460000      -1.97210000      -1.55500000
O        1.28780000      -2.25500000      -2.78210000
C        0.70750000      -0.48380000      -1.25790000
O        1.23110000       0.29930000      -2.02750000
H        0.56290000       1.69990000      -0.67300000
H        0.53930000      -0.45560000       0.85680000
H       -1.91570000      -0.23800000       0.94190000
H       -1.98490000      -0.01960000      -0.80380000
H       -0.99420000      -2.55220000       0.63920000
H       -2.51970000      -2.39360000      -0.21270000
H       -0.80560000      -3.53810000      -1.66050000
H       -1.31490000      -2.01140000      -2.37460000
H        1.21880000      -2.47570000      -0.73620000
H        1.60730000      -1.40510000      -3.12150000
