17
Properties=species:S:1:pos:R:3 gdb_11804=T pbc="F F F"
C        0.01630000       1.39600000       0.06210000
N        0.02710000      -0.04100000       0.03730000
C        0.00570000      -0.93750000      -1.00580000
O       -0.02810000      -0.78240000      -2.19890000
C        0.04200000      -2.13340000      -0.02010000
C        0.06310000      -1.05630000       1.07600000
C        0.85940000      -0.99990000       2.34000000
C       -0.66550000      -1.01180000       2.38080000
H        0.91740000       1.80100000       0.53940000
H       -0.01500000       1.74020000      -0.97440000
H       -0.86330000       1.78670000       0.58850000
H       -0.84850000      -2.76450000      -0.04760000
H        0.93990000      -2.74980000      -0.09620000
H        1.39360000      -1.89140000       2.65140000
H        1.35720000      -0.07040000       2.59680000
H       -1.16300000      -0.08980000       2.66390000
H       -1.16850000      -1.91130000       2.72000000
