18
Properties=species:S:1:pos:R:3 gdb_128166=T pbc="F F F"
C        0.23170000       1.05680000       0.48780000
N       -0.19310000       0.14540000      -0.58430000
C       -1.27410000      -0.69200000      -0.29050000
C       -1.34440000      -2.05330000      -0.03630000
O       -0.24200000      -2.85270000       0.00850000
C       -0.50490000      -4.22910000       0.20050000
C       -2.71690000      -2.33240000       0.14010000
N       -3.45540000      -1.22720000       0.01760000
N       -2.56320000      -0.25630000      -0.25140000
H        1.07740000       1.65060000       0.13100000
H       -0.58190000       1.74730000       0.72700000
H        0.52340000       0.54090000       1.41440000
H        0.58640000      -0.42540000      -0.88940000
H       -1.00400000      -4.41150000       1.16200000
H       -1.13190000      -4.63400000      -0.60530000
H        0.46130000      -4.73690000       0.19610000
H       -3.19620000      -3.27440000       0.35820000
H       -2.88640000       0.67830000      -0.43420000
