16
Properties=species:S:1:pos:R:3 gdb_14493=T pbc="F F F"
C       -0.16780000       1.58420000      -0.01340000
C        0.00790000       0.06250000       0.00820000
C       -1.29420000      -0.57170000      -0.20960000
N       -2.33540000      -1.04500000      -0.38370000
C        1.20530000      -0.66490000      -0.72340000
C        2.16830000      -0.12630000       0.36370000
C        0.90800000      -0.67360000       1.07880000
N        1.03850000      -1.87900000       0.16890000
H        0.77310000       2.11160000       0.14420000
H       -0.58130000       1.90400000      -0.97460000
H       -0.86830000       1.89570000       0.76720000
H        1.36030000      -0.75070000      -1.79960000
H        3.05900000      -0.73550000       0.50770000
H        2.37740000       0.94000000       0.40340000
H        0.70920000      -0.76970000       2.14690000
H        0.11990000      -2.30600000       0.01530000
