16
Properties=species:S:1:pos:R:3 gdb_28484=T pbc="F F F"
C        0.02670000       1.48960000      -0.07240000
C        0.03710000      -0.01140000      -0.01650000
N        0.02690000      -0.68960000      -1.16520000
C        0.05410000      -2.01590000      -1.11260000
O        0.04800000      -2.70660000      -2.27730000
C        0.08900000      -2.69890000       0.10170000
N        0.08610000      -2.03760000       1.25590000
C        0.06360000      -0.70420000       1.21240000
N        0.13170000      -0.02640000       2.42720000
H        0.86370000       1.91050000       0.49700000
H        0.09580000       1.82100000      -1.10930000
H       -0.89510000       1.90480000       0.35780000
H        0.02550000      -2.04480000      -2.98130000
H        0.11350000      -3.78360000       0.13250000
H       -0.06720000      -0.63360000       3.21050000
H       -0.38020000       0.84260000       2.47260000
