21
Properties=species:S:1:pos:R:3 gdb_86980=T pbc="F F F"
C       -0.32440000       1.39190000      -0.00570000
C        0.03650000      -0.09040000       0.04570000
C        1.17870000      -0.51430000      -0.92790000
C        2.16510000      -0.48290000       0.25420000
C        0.95910000      -0.49070000       1.23870000
O        3.05610000      -1.57170000       0.27250000
C        3.93900000      -1.53800000       1.37840000
C        4.83590000      -2.68560000       1.33580000
C        5.58660000      -3.62270000       1.32520000
H        0.56510000       2.02740000       0.07500000
H       -0.82450000       1.64290000      -0.94750000
H       -0.99860000       1.66200000       0.81450000
H       -0.87430000      -0.68890000      -0.03980000
H        1.06050000      -1.54040000      -1.28500000
H        1.38940000       0.13870000      -1.77860000
H        2.72700000       0.46240000       0.30920000
H        0.98900000       0.18740000       2.09610000
H        0.76090000      -1.50760000       1.58920000
H        4.52940000      -0.60520000       1.37050000
H        3.37670000      -1.54620000       2.32670000
H        6.24780000      -4.45350000       1.30920000
