10
Properties=species:S:1:pos:R:3 gdb_3944=T pbc="F F F"
O        0.09920000       1.38280000      -0.00320000
C        0.07440000       0.03780000       0.02210000
N        0.02850000      -0.73120000      -1.05610000
N        0.02000000      -1.96620000      -0.55110000
N        0.05720000      -2.05460000       0.77970000
C        0.09270000      -0.78810000       1.16770000
O        0.13840000      -0.38650000       2.45100000
H        0.07610000       1.65730000      -0.92800000
H       -0.01340000      -2.78060000      -1.13770000
H        0.13870000      -1.17740000       3.00390000
