21
Properties=species:S:1:pos:R:3 gdb_122536=T pbc="F F F"
C       -0.24840000       1.51570000       0.40460000
C        0.00560000       0.05580000       0.07090000
O        0.72590000      -0.53050000       1.13740000
C        1.02870000      -1.88990000       0.92380000
C        1.80100000      -2.38120000       2.12140000
O        1.07060000      -2.97390000       3.19970000
C        1.99390000      -3.79720000       2.46770000
C        1.38210000      -4.96370000       1.73040000
O        0.99680000      -5.98400000       2.63560000
H        0.69710000       2.04810000       0.54100000
H       -0.80700000       1.99920000      -0.40230000
H       -0.82650000       1.60170000       1.32880000
H       -0.94720000      -0.47860000      -0.08240000
H        0.57880000      -0.03490000      -0.86790000
H        0.11050000      -2.48090000       0.79170000
H        1.64090000      -2.01100000       0.01180000
H        2.57040000      -1.67790000       2.44350000
H        2.88860000      -4.05900000       3.03570000
H        0.53390000      -4.62990000       1.11710000
H        2.12510000      -5.41210000       1.06150000
H        0.38620000      -5.58150000       3.26380000
