22
Properties=species:S:1:pos:R:3 gdb_118353=T pbc="F F F"
C       -0.01980000       1.45490000       0.28040000
C       -0.00820000      -0.06350000       0.07940000
C       -1.42030000      -0.63680000      -0.08610000
C       -1.48240000      -2.17240000      -0.21540000
C       -2.94920000      -2.57440000      -0.30530000
O       -3.66330000      -2.74210000       0.64860000
N       -0.80780000      -2.63740000      -1.42430000
C        0.58370000      -3.05910000      -1.29560000
C       -0.49290000      -4.06720000      -1.47680000
H        0.99510000       1.84760000       0.39630000
H       -0.47790000       1.96340000      -0.57510000
H       -0.58980000       1.73240000       1.17380000
H        0.59350000      -0.31030000      -0.80170000
H        0.48120000      -0.54350000       0.93720000
H       -2.03420000      -0.35680000       0.77850000
H       -1.89280000      -0.19310000      -0.97190000
H       -1.07170000      -2.62720000       0.70370000
H       -3.32530000      -2.67350000      -1.34860000
H        1.23500000      -2.79250000      -2.12310000
H        1.04840000      -2.99860000      -0.31330000
H       -0.75010000      -4.68020000      -0.61440000
H       -0.64530000      -4.54670000      -2.43900000
