20
Properties=species:S:1:pos:R:3 gdb_126436=T pbc="F F F"
C        0.06400000       1.52850000       0.11380000
C       -0.05470000       0.00650000      -0.08610000
C        0.72250000      -0.50430000      -1.26090000
N        0.13360000      -0.74970000      -2.43100000
N        1.12000000      -1.16890000      -3.23630000
C        2.33880000      -1.19720000      -2.62410000
C        2.11970000      -0.77120000      -1.32690000
N        3.03120000      -0.68080000      -0.26990000
C        4.43980000      -0.80380000      -0.59780000
H        1.10480000       1.83860000       0.26230000
H       -0.31370000       2.06200000      -0.76320000
H       -0.50780000       1.85580000       0.98810000
H        0.28390000      -0.50880000       0.82190000
H       -1.10630000      -0.25940000      -0.22970000
H        0.90120000      -1.43800000      -4.17890000
H        3.22900000      -1.51560000      -3.14010000
H        2.84350000       0.10940000       0.33100000
H        4.64270000      -1.81370000      -0.97230000
H        4.78190000      -0.08700000      -1.36370000
H        5.03620000      -0.65890000       0.30620000
