16
Properties=species:S:1:pos:R:3 gdb_1769=T pbc="F F F"
C       -0.20400000       1.44900000      -0.06650000
N        0.04170000       0.01910000       0.03880000
C        1.38650000      -0.47330000      -0.18970000
C        0.79100000      -0.52060000       1.19110000
C        1.35670000       0.38140000       2.27920000
C        0.27810000      -1.77790000       1.68880000
C       -0.12400000      -2.81790000       2.13840000
H        0.65380000       2.08870000       0.19140000
H       -0.48560000       1.67080000      -1.10090000
H       -1.04570000       1.72200000       0.57750000
H        1.47340000      -1.38020000      -0.78170000
H        2.18450000       0.25460000      -0.34180000
H        1.81160000       1.28450000       1.86800000
H        0.57360000       0.67440000       2.98560000
H        2.12530000      -0.15790000       2.84000000
H       -0.49090000      -3.73850000       2.51940000
