19
Properties=species:S:1:pos:R:3 gdb_67670=T pbc="F F F"
C       -0.04290000       1.53110000       0.02170000
C       -0.00850000       0.03140000      -0.03570000
C       -0.89960000      -0.86450000       0.83910000
C       -1.57000000      -2.09340000       0.22070000
C       -0.38270000      -2.97600000      -0.25000000
C        0.81900000      -2.01560000      -0.23470000
C        0.57240000      -1.03700000       0.94790000
C        0.57980000      -0.78340000      -1.14020000
O        0.96110000      -0.49220000      -2.24330000
H        0.89500000       1.95570000      -0.34950000
H       -0.85390000       1.92820000      -0.59830000
H       -0.20120000       1.88640000       1.04480000
H       -1.42310000      -0.30850000       1.61060000
H       -2.18700000      -2.61000000       0.96210000
H       -2.22750000      -1.81460000      -0.60890000
H       -0.20960000      -3.80070000       0.44960000
H       -0.54450000      -3.41070000      -1.24020000
H        1.79890000      -2.47920000      -0.34710000
H        1.20660000      -0.85830000       1.80480000
