23
Properties=species:S:1:pos:R:3 gdb_121001=T pbc="F F F"
C       -0.76490000       1.48810000       0.20180000
C       -0.18250000       0.12730000      -0.01470000
C       -0.30630000      -0.64660000      -1.09500000
C        0.46730000      -1.93660000      -0.97890000
C        0.83310000      -1.99840000       0.53200000
C        2.18160000      -2.64650000       0.85190000
C        2.25560000      -4.12190000       0.47960000
O        3.53510000      -4.60560000       0.86360000
C        0.70890000      -0.53080000       1.01860000
H        0.02260000       2.23430000       0.37070000
H       -1.36180000       1.81430000      -0.65450000
H       -1.40570000       1.50970000       1.09280000
H       -0.86350000      -0.37550000      -1.98630000
H       -0.10410000      -2.81260000      -1.30820000
H        1.37170000      -1.90870000      -1.60690000
H        0.04370000      -2.57410000       1.03340000
H        2.98530000      -2.11260000       0.32850000
H        2.39470000      -2.55680000       1.92430000
H        1.45090000      -4.67380000       0.99390000
H        2.09420000      -4.24740000      -0.60290000
H        3.59540000      -5.53060000       0.60810000
H        1.69040000      -0.03220000       1.04710000
H        0.30580000      -0.46200000       2.03670000
