21
Properties=species:S:1:pos:R:3 gdb_57850=T pbc="F F F"
C        1.62030000       1.41840000       0.15120000
C        0.44590000       0.46330000       0.39530000
C       -0.17120000      -0.02490000      -0.93180000
C        0.90100000      -0.76510000       1.18270000
O        1.93480000      -1.33850000       0.94180000
C       -0.05850000      -1.28220000       2.28590000
C        0.37130000      -2.65600000       2.82040000
C       -0.14320000      -0.27440000       3.34090000
C       -0.17470000       0.55680000       4.20940000
H        2.43840000       0.89140000      -0.34640000
H        1.30750000       2.25670000      -0.47870000
H        2.00230000       1.82270000       1.09330000
H       -0.33040000       0.97540000       0.97390000
H        0.57910000      -0.55240000      -1.52850000
H       -1.01400000      -0.70480000      -0.76700000
H       -0.53810000       0.82660000      -1.51260000
H       -1.05140000      -1.36400000       1.81800000
H        1.37280000      -2.59900000       3.25060000
H       -0.32550000      -2.99920000       3.58850000
H        0.39550000      -3.38540000       2.00720000
H       -0.21590000       1.28510000       4.98120000
