19
Properties=species:S:1:pos:R:3 gdb_66940=T pbc="F F F"
C        0.02240000       1.49070000       0.05800000
C       -0.00930000      -0.00430000      -0.02450000
C       -0.94540000      -0.89460000       0.81510000
C       -1.08010000      -2.24530000       0.10820000
C        0.42120000      -2.07780000      -0.25790000
C        0.55100000      -1.04110000       0.93860000
C        0.41330000      -0.86470000      -1.19350000
C        0.29230000      -0.72980000      -2.64280000
O        1.54870000      -0.51020000      -1.96270000
H        0.96840000       1.87450000      -0.33770000
H       -0.79320000       1.94390000      -0.51780000
H       -0.07590000       1.83190000       1.09370000
H       -1.62750000      -0.44230000       1.52510000
H       -1.23700000      -3.05410000       0.82750000
H       -1.79030000      -2.34470000      -0.72120000
H        1.06990000      -2.92640000      -0.46190000
H        1.23370000      -0.94560000       1.76990000
H        0.25920000      -1.61660000      -3.27520000
H       -0.15890000       0.16220000      -3.07600000
