17
Properties=species:S:1:pos:R:3 gdb_47397=T pbc="F F F"
N        0.08810000       1.27430000      -0.21510000
C        0.06200000       0.03070000      -0.02350000
O        1.14230000      -0.77070000       0.22290000
C        0.66960000      -2.09640000       0.44360000
O       -0.63020000      -2.16030000      -0.08080000
C       -1.16740000      -0.84870000      -0.03310000
C       -2.25430000      -0.56250000       1.05050000
N       -3.14170000      -0.02630000      -0.00640000
C       -2.26760000      -0.56300000      -1.07740000
H        1.03870000       1.63930000      -0.14650000
H        1.31230000      -2.80300000      -0.08890000
H        0.68620000      -2.30320000       1.52520000
H       -2.58140000      -1.50230000       1.51370000
H       -1.99880000       0.16420000       1.82810000
H       -4.08120000      -0.40460000       0.00050000
H       -2.01120000       0.16670000      -1.85040000
H       -2.60400000      -1.49840000      -1.54130000
