20
Properties=species:S:1:pos:R:3 gdb_86235=T pbc="F F F"
C        0.96820000       1.27900000      -0.08790000
N        0.00290000       0.18870000       0.00930000
C        0.03930000      -0.76040000      -1.10860000
C        1.06190000      -1.89730000      -0.75690000
N        2.35120000      -1.89270000      -1.44420000
C        1.26870000      -1.70560000       0.78410000
C        0.18510000      -0.65510000       1.18500000
C        1.19070000      -2.94050000       1.54920000
N        1.09520000      -3.91250000       2.16860000
H        2.02990000       0.96980000      -0.09990000
H        0.77720000       1.84920000      -1.00150000
H        0.83430000       1.95650000       0.76090000
H       -0.96080000      -1.19690000      -1.22670000
H        0.29500000      -0.25730000      -2.04480000
H        0.60650000      -2.87250000      -0.94860000
H        2.22970000      -2.16090000      -2.41590000
H        2.74820000      -0.95730000      -1.45220000
H        2.26780000      -1.28340000       0.93380000
H        0.46920000      -0.06870000       2.06090000
H       -0.75370000      -1.17330000       1.41240000
