21
Properties=species:S:1:pos:R:3 gdb_77680=T pbc="F F F"
C       -0.00590000       1.57390000       0.04290000
C        0.04800000       0.06530000       0.05800000
C        1.32350000      -0.72230000      -0.21740000
C        1.40480000      -1.87190000      -1.18200000
O        2.51770000       0.04290000      -0.11940000
C        2.84170000       0.05710000       1.25610000
O        1.62190000       0.03180000       1.96930000
C        0.73070000      -0.72960000       1.16480000
C        0.09230000      -1.88810000       1.87830000
H        0.91360000       2.00690000       0.43790000
H       -0.14470000       1.94690000      -0.97730000
H       -0.84050000       1.93860000       0.65070000
H       -0.84550000      -0.42400000      -0.32790000
H        1.57730000      -1.50610000      -2.19960000
H        2.22580000      -2.54810000      -0.92180000
H        0.47290000      -2.44440000      -1.18470000
H        3.45700000      -0.82340000       1.51530000
H        3.38020000       0.97970000       1.49190000
H       -0.52700000      -1.53200000       2.70830000
H       -0.55020000      -2.45690000       1.20020000
H        0.84940000      -2.56530000       2.28740000
