20
Properties=species:S:1:pos:R:3 gdb_78866=T pbc="F F F"
C       -0.00840000       1.61820000       0.07280000
C        0.11910000       0.10150000       0.05140000
C        1.18230000      -0.60660000      -0.77670000
C        2.42700000      -0.76330000       0.04360000
N        1.29190000      -1.74480000       0.19740000
C        0.75150000      -0.68930000       1.22700000
C        2.17540000      -0.17780000       1.40320000
C        3.03920000      -0.40500000       2.60430000
C        2.74270000       1.00500000       2.12680000
H        0.95130000       2.10140000       0.27080000
H       -0.37920000       1.98630000      -0.89010000
H       -0.71790000       1.94230000       0.84260000
H       -0.84770000      -0.35950000      -0.18120000
H        1.17930000      -0.78940000      -1.84660000
H        3.37520000      -1.06380000      -0.38950000
H        0.15780000      -1.01890000       2.07900000
H        2.56760000      -0.74210000       3.52210000
H        4.04020000      -0.79520000       2.45010000
H        3.54430000       1.56320000       1.65340000
H        2.07340000       1.61370000       2.72620000
