20
Properties=species:S:1:pos:R:3 gdb_94600=T pbc="F F F"
N       -0.19750000       1.26130000       0.56810000
C       -0.00450000      -0.01510000       0.11150000
O        1.08740000      -0.41430000      -0.24460000
C       -1.26460000      -0.87870000       0.09840000
C       -0.94070000      -2.35620000      -0.09390000
C       -0.45660000      -3.07950000       1.19800000
C       -1.89760000      -3.62380000       1.40820000
C       -2.18720000      -3.28110000      -0.07840000
O       -3.39760000      -2.63850000      -0.41600000
H        0.56500000       1.91220000       0.47090000
H       -1.12000000       1.63030000       0.72200000
H       -1.83440000      -0.70820000       1.01960000
H       -1.91170000      -0.53160000      -0.71700000
H       -0.28570000      -2.45790000      -0.96020000
H        0.26400000      -3.87120000       0.98160000
H       -0.04310000      -2.44620000       1.98570000
H       -2.01610000      -4.66260000       1.72690000
H       -2.48780000      -2.98210000       2.06900000
H       -2.01820000      -4.15790000      -0.72020000
H       -4.10940000      -3.28350000      -0.35870000
