23
Properties=species:S:1:pos:R:3 gdb_58567=T pbc="F F F"
C        0.34130000       1.49670000       0.19320000
C        0.09110000       0.00230000      -0.00150000
O       -1.28000000      -0.34560000       0.19080000
C        0.60960000      -0.52600000      -1.35490000
C       -0.11530000       0.07520000      -2.55160000
O        2.04590000      -0.28650000      -1.43830000
C        2.33970000      -1.69750000      -1.39280000
C        0.84350000      -2.07030000      -1.44020000
C        0.29460000      -3.01690000      -0.38220000
H        1.39410000       1.72920000       0.01500000
H       -0.26140000       2.09920000      -0.49670000
H        0.07830000       1.79010000       1.21310000
H        0.63010000      -0.53340000       0.78690000
H       -1.81530000       0.29060000      -0.29460000
H       -0.01630000       1.16450000      -2.57610000
H        0.30600000      -0.31760000      -3.48070000
H       -1.17990000      -0.18160000      -2.52670000
H        2.95800000      -2.01470000      -2.24080000
H        2.85080000      -1.97760000      -0.46100000
H        0.55460000      -2.43350000      -2.43110000
H        0.63340000      -2.75170000       0.62380000
H       -0.79820000      -3.00960000      -0.37470000
H        0.63140000      -4.04030000      -0.58140000
