17
Properties=species:S:1:pos:R:3 gdb_110952=T pbc="F F F"
C        0.04550000       1.45690000      -0.09540000
C       -0.01890000      -0.02470000       0.07090000
O        0.52730000      -0.90580000      -1.01850000
C        0.07620000      -1.89070000      -0.00320000
C        0.66050000      -0.97580000       1.11040000
C        2.17610000      -0.90720000       1.24140000
O        2.69660000      -2.03460000       1.93080000
C       -1.20870000      -1.02730000       0.04010000
O       -2.39060000      -1.07950000      -0.04520000
H        1.08020000       1.80850000      -0.14430000
H       -0.47060000       1.75760000      -1.01140000
H       -0.44640000       1.94440000       0.75190000
H        0.24170000      -2.94500000      -0.21560000
H        0.17590000      -1.04790000       2.08980000
H        2.63270000      -0.78260000       0.25280000
H        2.44660000      -0.03800000       1.85030000
H        2.64260000      -2.79270000       1.34070000
