20
Properties=species:S:1:pos:R:3 gdb_55679=T pbc="F F F"
C        1.11010000       1.42930000      -1.55460000
C        1.17680000      -0.06300000      -1.75830000
N        2.04690000      -0.73650000      -2.39350000
O        0.12490000      -0.65640000      -1.15520000
C        0.01470000      -2.08520000      -1.21230000
C        0.98900000      -2.75870000      -0.25960000
C       -1.45370000      -2.52680000      -1.05800000
O       -1.37210000      -3.32330000      -2.25530000
C       -0.10760000      -2.71850000      -2.61500000
H        1.94510000       1.92970000      -2.04730000
H        0.16960000       1.82130000      -1.95320000
H        1.13050000       1.66390000      -0.48600000
H        2.75460000      -0.12320000      -2.79050000
H        0.84750000      -2.37730000       0.75690000
H        0.80570000      -3.83730000      -0.25090000
H        2.01890000      -2.57980000      -0.57180000
H       -1.70300000      -3.12480000      -0.17430000
H       -2.16100000      -1.69290000      -1.15520000
H       -0.21640000      -1.98520000      -3.42100000
H        0.64880000      -3.45820000      -2.89040000
