20
Properties=species:S:1:pos:R:3 gdb_69092=T pbc="F F F"
C       -0.04210000       1.52000000      -0.04330000
C       -0.04600000       0.01630000       0.04350000
C       -1.30750000      -0.74530000      -0.34860000
C       -1.11280000      -2.17750000       0.19760000
C       -0.19240000      -2.01730000       1.42840000
C        0.63410000      -0.76340000       1.14060000
N        1.23820000      -0.64970000      -0.21030000
C        1.35420000      -0.15760000       2.22530000
C        1.92620000       0.33480000       3.16180000
H        0.89270000       1.92400000       0.35030000
H       -0.14420000       1.84590000      -1.08460000
H       -0.87520000       1.94530000       0.52680000
H       -2.17100000      -0.26200000       0.12470000
H       -1.48570000      -0.72680000      -1.43010000
H       -2.06040000      -2.65830000       0.45170000
H       -0.63960000      -2.81550000      -0.55590000
H       -0.77710000      -1.84590000       2.33890000
H        0.43430000      -2.89680000       1.60940000
H        1.12340000      -1.52060000      -0.72440000
H        2.44430000       0.77330000       3.97830000
