15
Properties=species:S:1:pos:R:3 gdb_54778=T pbc="F F F"
N       -0.11460000       1.32370000      -0.19870000
C       -0.04690000      -0.05080000      -0.11250000
O        0.85520000      -0.71400000      -0.58010000
N       -1.11700000      -0.60580000       0.61990000
C       -2.56540000      -0.43530000       0.15120000
C       -2.28660000      -1.48890000      -0.96800000
C       -1.52740000      -2.02700000       0.29330000
C       -2.82220000      -1.66360000       1.06220000
O       -3.60320000      -2.09750000       1.84010000
H        0.75020000       1.76160000      -0.47730000
H       -0.63790000       1.81310000       0.51030000
H       -3.05250000       0.53470000       0.09060000
H       -3.13080000      -2.06640000      -1.35330000
H       -1.62130000      -1.14220000      -1.75840000
H       -0.83550000      -2.85830000       0.38090000
