20
Properties=species:S:1:pos:R:3 gdb_63066=T pbc="F F F"
C       -0.27110000       1.59920000      -0.00100000
C       -0.04230000       0.10080000      -0.06330000
C       -1.13030000      -0.67400000       0.66600000
C        0.62380000      -0.62860000      -1.19260000
C        1.51950000       0.01640000      -2.21900000
O        1.75260000       1.42780000      -2.10650000
C        2.70860000       0.53510000      -1.52300000
C        2.51370000       0.27640000      -0.03220000
N        1.28150000      -0.52900000       0.14020000
H        0.48360000       2.17650000      -0.52470000
H       -1.24420000       1.83830000      -0.44350000
H       -0.30840000       1.91300000       1.04950000
H       -2.10670000      -0.50550000       0.19820000
H       -0.91820000      -1.74560000       0.66230000
H       -1.19450000      -0.34530000       1.70930000
H        0.24950000      -1.61180000      -1.47480000
H        1.53710000      -0.37610000      -3.23190000
H        3.70520000       0.57280000      -1.95770000
H        3.35500000      -0.31480000       0.34700000
H        2.47760000       1.20670000       0.54550000
