18
Properties=species:S:1:pos:R:3 gdb_85113=T pbc="F F F"
C       -0.11030000       1.49880000      -0.09020000
N       -0.01660000       0.06140000       0.06600000
C       -1.24630000      -0.69680000       0.37000000
C       -0.41000000      -1.56960000       1.30620000
O       -0.54030000      -2.61900000       1.85210000
C        0.75740000      -0.53060000       1.20720000
C        2.12750000      -1.08720000       0.82300000
C        0.80760000       0.29360000       2.41100000
C        0.82670000       0.98730000       3.39400000
H        0.88800000       1.92120000      -0.23820000
H       -0.70300000       1.72120000      -0.98310000
H       -0.57350000       2.00600000       0.77270000
H       -2.00960000      -0.13360000       0.93440000
H       -1.72500000      -1.18500000      -0.48540000
H        2.03790000      -1.70090000      -0.07630000
H        2.82990000      -0.27220000       0.62520000
H        2.52620000      -1.69660000       1.63860000
H        0.85230000       1.59040000       4.26810000
