17
Properties=species:S:1:pos:R:3 gdb_12319=T pbc="F F F"
C        0.04980000       1.49900000       0.04920000
C        0.02890000      -0.00180000      -0.01990000
C       -0.06300000      -0.70190000      -1.16060000
C       -0.03590000      -2.19980000      -1.22460000
N        0.54650000      -2.76000000      -0.01420000
C       -0.08250000      -2.25050000       1.19720000
C        0.05250000      -0.73220000       1.27340000
O        0.09960000      -0.15370000       2.34040000
H        0.97240000       1.85070000       0.52270000
H       -0.02390000       1.94270000      -0.94690000
H       -0.77190000       1.87280000       0.66840000
H       -0.16720000      -0.18070000      -2.11000000
H       -1.06970000      -2.55510000      -1.42710000
H        0.56490000      -2.51620000      -2.08630000
H        0.50090000      -3.77220000      -0.03680000
H       -1.16640000      -2.47870000       1.27160000
H        0.39950000      -2.67850000       2.07940000
