16
Properties=species:S:1:pos:R:3 gdb_133500=T pbc="F F F"
C        0.18450000       1.74760000      -0.23550000
C       -0.10530000       0.28660000       0.12230000
C       -1.62670000       0.00140000       0.14450000
C       -2.10340000      -1.07270000       1.09720000
O       -2.37720000       0.63320000      -0.55720000
C        0.58070000      -0.65550000      -0.86650000
F        1.91140000      -0.48460000      -0.85410000
F        0.34900000      -1.94850000      -0.56670000
F        0.15850000      -0.45500000      -2.11980000
H        1.26020000       1.92020000      -0.31020000
H       -0.29010000       2.00000000      -1.18460000
H       -0.22240000       2.40920000       0.53250000
H        0.31670000       0.03200000       1.10070000
H       -1.92300000      -0.75030000       2.13020000
H       -3.16950000      -1.25130000       0.95480000
H       -1.53610000      -1.99520000       0.94740000
