16
Properties=species:S:1:pos:R:3 gdb_45060=T pbc="F F F"
O        0.01880000      -0.01070000       0.19060000
C        0.01900000       1.19260000       0.07070000
N       -1.07590000       2.00910000      -0.08530000
C       -0.78300000       3.41480000      -0.05410000
C       -0.19500000       3.96140000       1.22340000
C        0.71680000       3.52650000       0.09020000
C        1.23370000       2.11950000       0.09770000
C        2.51200000       1.64610000       0.63890000
O        2.31180000       1.77350000      -0.77010000
H       -2.00200000       1.63960000       0.06450000
H       -1.35120000       4.04420000      -0.72870000
H       -0.26880000       5.02900000       1.40070000
H       -0.25760000       3.34370000       2.11350000
H        1.28240000       4.27080000      -0.45520000
H        3.19670000       2.36670000       1.08360000
H        2.57260000       0.62320000       1.00490000
