20
Properties=species:S:1:pos:R:3 gdb_106717=T pbc="F F F"
C        0.06010000       1.31990000      -0.27950000
O        0.02460000      -0.00620000       0.22430000
C       -1.23050000      -0.57440000       0.20770000
C       -1.89270000      -1.06950000      -1.06590000
C       -1.61090000      -2.03650000       0.05900000
C       -0.80990000      -3.29490000      -0.06620000
N       -2.70990000      -1.91300000       1.05620000
C       -2.05750000      -1.52300000       2.32110000
C       -2.26690000      -0.47160000       1.29860000
H        1.10360000       1.64160000      -0.25770000
H       -0.31260000       1.36590000      -1.31190000
H       -0.53590000       2.00520000       0.33940000
H       -2.91760000      -0.80520000      -1.31280000
H       -1.21760000      -1.15510000      -1.91260000
H        0.05250000      -3.13670000      -0.71990000
H       -0.43700000      -3.63000000       0.90740000
H       -1.41760000      -4.10140000      -0.49110000
H       -2.73510000      -1.53970000       3.16950000
H       -1.04910000      -1.87230000       2.52850000
H       -3.00430000       0.31660000       1.41650000
