17
Properties=species:S:1:pos:R:3 gdb_97335=T pbc="F F F"
C       -0.54930000       1.69910000      -0.27500000
N       -0.38490000       0.36530000      -0.81530000
C       -0.23150000      -0.58220000       0.00780000
N       -0.06830000      -1.88680000      -0.43780000
C        0.13440000      -2.95990000       0.39500000
O        0.21070000      -2.89420000       1.60470000
C        0.24010000      -4.27730000      -0.33230000
C       -0.88600000      -4.77760000      -1.14140000
O        0.28220000      -4.23960000      -1.76060000
H       -0.52060000       1.74200000       0.82500000
H        0.23790000       2.35240000      -0.66860000
H       -1.50460000       2.11610000      -0.61430000
H       -0.21090000      -0.49720000       1.09860000
H       -0.03840000      -2.04980000      -1.43620000
H        0.90340000      -4.99190000       0.14870000
H       -1.02170000      -5.85140000      -1.25220000
H       -1.78610000      -4.17340000      -1.23530000
