23
Properties=species:S:1:pos:R:3 gdb_96181=T pbc="F F F"
C       -0.09530000       1.53990000      -0.07990000
C        0.01570000       0.02370000       0.00130000
O        0.59750000      -0.42520000      -1.21910000
C        0.69780000      -1.83770000      -1.27860000
C        1.72730000      -2.35240000      -0.27240000
C        1.37730000      -1.91700000       1.16300000
C        2.60470000      -1.39650000       1.96360000
C        2.24910000       0.04310000       1.50050000
C        0.80690000      -0.46220000       1.21370000
H        0.89700000       1.99540000      -0.14870000
H       -0.66780000       1.83190000      -0.96430000
H       -0.59730000       1.93560000       0.80850000
H       -1.00080000      -0.40740000       0.07190000
H       -0.29010000      -2.29530000      -1.09420000
H        0.99300000      -2.08310000      -2.30350000
H        1.80910000      -3.44360000      -0.33400000
H        2.70260000      -1.94550000      -0.56380000
H        0.76310000      -2.68020000       1.65000000
H        2.46660000      -1.51630000       3.04210000
H        3.58500000      -1.79690000       1.69000000
H        2.37090000       0.85560000       2.22050000
H        2.76810000       0.31360000       0.57680000
H        0.18920000      -0.33650000       2.11010000
