22
Properties=species:S:1:pos:R:3 gdb_52400=T pbc="F F F"
O        0.17040000       0.28220000       1.06390000
C        0.06460000       1.20050000       0.27840000
N        1.03840000       1.63300000      -0.56620000
C        2.37730000       1.06390000      -0.59920000
C        3.44970000       2.01100000      -0.04610000
C        4.84760000       1.41010000      -0.10820000
C        5.53550000       1.20870000      -1.49190000
C        6.87620000       1.64980000      -0.84610000
C        6.06290000       2.28290000       0.31500000
H       -0.86700000       1.79050000       0.16250000
H        0.83540000       2.42960000      -1.14920000
H        2.33080000       0.15010000      -0.00200000
H        2.62320000       0.77730000      -1.62940000
H        3.43480000       2.95360000      -0.61250000
H        3.19530000       2.26490000       0.99070000
H        4.86370000       0.46510000       0.44880000
H        5.48890000       0.21830000      -1.95140000
H        5.17920000       1.94580000      -2.22030000
H        7.46350000       0.79140000      -0.50770000
H        7.52820000       2.30590000      -1.42720000
H        5.86700000       3.34580000       0.13680000
H        6.44270000       2.16780000       1.33320000
