21
Properties=species:S:1:pos:R:3 gdb_100446=T pbc="F F F"
C       -0.15630000       1.52050000      -0.06030000
C       -0.10930000      -0.00570000       0.04980000
C        0.72570000      -0.52390000       1.24850000
C        0.13560000      -0.12460000       2.61720000
C        0.89720000      -1.97210000       1.16230000
C        1.02140000      -3.17060000       1.07220000
C        1.17760000      -4.60840000       0.96400000
C        1.46770000      -5.33150000       2.26480000
O        1.08080000      -5.18470000      -0.09930000
H        0.85230000       1.94470000      -0.12160000
H       -0.69720000       1.82200000      -0.96220000
H       -0.66160000       1.98200000       0.79330000
H       -1.12520000      -0.41070000       0.13110000
H        0.31590000      -0.42570000      -0.86760000
H        1.72890000      -0.07810000       1.17040000
H       -0.87680000      -0.52450000       2.73060000
H        0.74830000      -0.51660000       3.43290000
H        0.08990000       0.96260000       2.71740000
H        2.38750000      -4.94190000       2.71450000
H        0.66060000      -5.15130000       2.98310000
H        1.56780000      -6.40120000       2.07500000
