21
Properties=species:S:1:pos:R:3 gdb_72924=T pbc="F F F"
C       -0.17680000       1.43590000       0.02570000
C        0.06930000      -0.05670000      -0.00560000
O       -1.16050000      -0.79430000       0.26660000
C       -0.58360000      -1.42730000       1.43060000
C        0.79680000      -0.81070000       1.15160000
C        1.81900000      -1.60700000       0.31820000
C        0.99960000      -2.09700000      -0.91370000
C        0.88630000      -0.57850000      -1.20820000
C        2.33640000      -0.47590000      -0.62760000
H        0.74240000       1.99820000      -0.16630000
H       -0.90800000       1.70560000      -0.74420000
H       -0.57920000       1.74800000       0.99400000
H       -1.06140000      -1.07580000       2.35400000
H       -0.65590000      -2.52130000       1.38870000
H        1.24970000      -0.22920000       1.95650000
H        2.50050000      -2.27000000       0.85240000
H        1.63430000      -2.60960000      -1.63960000
H        0.07580000      -2.65500000      -0.75950000
H        0.62670000      -0.19500000      -2.19570000
H        2.65540000       0.46820000      -0.17510000
H        3.09200000      -0.82520000      -1.33440000
