16
Properties=species:S:1:pos:R:3 gdb_133064=T pbc="F F F"
C        0.08130000       1.49970000       0.21030000
C       -0.13750000       0.00770000      -0.09320000
C        0.69560000      -0.46140000      -1.25680000
C        1.76050000      -1.35230000      -1.11500000
C        2.45910000      -1.69400000      -2.26530000
N        2.14880000      -1.20650000      -3.46960000
C        1.12280000      -0.37290000      -3.47010000
F        0.79790000       0.12130000      -4.65070000
N        0.37660000       0.03420000      -2.46270000
H        1.11730000       1.69490000       0.50490000
H       -0.14120000       2.10250000      -0.67360000
H       -0.57090000       1.82420000       1.02590000
H        0.09120000      -0.59790000       0.78930000
H       -1.19160000      -0.15680000      -0.34270000
H        2.03000000      -1.76200000      -0.14970000
H        3.29840000      -2.38420000      -2.22930000
