17
Properties=species:S:1:pos:R:3 gdb_68123=T pbc="F F F"
C       -0.10060000       1.54380000       0.24230000
C       -0.02270000       0.05760000       0.04450000
C        0.95300000      -0.66030000      -0.94700000
C        0.67490000      -1.76290000       0.13400000
O        0.65210000      -0.68960000       1.12650000
C        1.63610000      -2.87780000       0.40670000
O        1.53020000      -3.97720000      -0.07480000
C       -0.82440000      -2.03420000      -0.09550000
C       -1.30390000      -0.79230000      -0.14500000
H        0.89630000       1.97300000       0.37120000
H       -0.57550000       2.01770000      -0.62270000
H       -0.69530000       1.77870000       1.13070000
H        0.63010000      -0.85310000      -1.97100000
H        1.97020000      -0.26280000      -0.89500000
H        2.47720000      -2.59940000       1.07820000
H       -1.29180000      -3.00260000      -0.18380000
H       -2.30960000      -0.42350000      -0.28580000
