15
Properties=species:S:1:pos:R:3 gdb_79222=T pbc="F F F"
N       -0.10160000       1.50650000      -0.02370000
C       -0.06790000       0.07760000      -0.02550000
C       -1.39240000      -0.68000000      -0.08820000
C       -1.69510000      -0.82180000      -1.58580000
O       -0.66550000      -0.13690000      -2.31510000
C        0.26870000      -0.71870000      -1.36240000
C        1.61020000      -0.90180000      -1.84450000
N        2.70890000      -1.04890000      -2.17380000
C       -0.78680000      -1.80070000      -0.93150000
H        0.82740000       1.90370000       0.06940000
H       -0.50210000       1.83950000      -0.89600000
H        0.55440000      -0.30070000       0.78870000
H       -2.15520000      -0.75110000       0.67520000
H       -2.67630000      -0.91060000      -2.02960000
H       -0.75630000      -2.87550000      -0.83630000
