18
Properties=species:S:1:pos:R:3 gdb_127303=T pbc="F F F"
C        0.00980000       1.35700000       0.14790000
N        0.07000000      -0.08060000       0.00270000
C        0.10040000      -0.80510000      -1.14120000
C        0.11840000      -2.13500000      -0.77480000
C        0.09890000      -2.11580000       0.63710000
N        0.06410000      -0.86340000       1.09940000
C        0.11160000      -3.26210000       1.57140000
C        0.99970000      -3.23530000       2.77040000
N       -0.45300000      -3.10300000       2.92390000
H        0.09390000       1.81590000      -0.83850000
H       -0.93700000       1.65780000       0.60590000
H        0.83160000       1.70460000       0.77910000
H        0.10460000      -0.32650000      -2.10800000
H        0.14600000      -2.99300000      -1.42680000
H       -0.10330000      -4.22190000       1.10910000
H        1.42240000      -4.16110000       3.15200000
H        1.61840000      -2.35150000       2.89720000
H       -0.68310000      -2.11770000       3.04350000
