20
Properties=species:S:1:pos:R:3 gdb_119855=T pbc="F F F"
O       -0.12920000       1.44340000      -0.11430000
C        0.00840000       0.03170000      -0.10350000
C       -1.38590000      -0.56180000       0.11850000
C       -1.39480000      -2.06050000       0.10320000
C       -1.60030000      -2.89380000       1.12750000
C       -1.48640000      -4.33660000       0.69190000
N       -1.24090000      -4.30050000      -0.76960000
C       -2.33630000      -3.71780000      -1.55040000
C       -1.18100000      -2.86770000      -1.14100000
H        0.74210000       1.83000000      -0.24010000
H        0.42860000      -0.33470000      -1.05370000
H        0.67980000      -0.30390000       0.70210000
H       -1.76770000      -0.19050000       1.07480000
H       -2.04380000      -0.16670000      -0.66620000
H       -1.84210000      -2.59610000       2.14190000
H       -0.64690000      -4.84880000       1.18200000
H       -2.38560000      -4.92680000       0.91140000
H       -2.41020000      -4.09470000      -2.56730000
H       -3.28730000      -3.52580000      -1.05700000
H       -0.43260000      -2.56830000      -1.87070000
