17
Properties=species:S:1:pos:R:3 gdb_49764=T pbc="F F F"
O        0.32910000      -0.28320000      -0.00250000
C        0.14930000       0.90650000       0.00520000
C        1.28500000       1.93390000      -0.00000000
C        1.23400000       2.80450000      -1.23890000
C        0.29010000       3.72350000      -1.51440000
C       -0.76300000       4.20400000      -0.64610000
C       -0.75040000       4.19670000       0.70830000
C        0.31880000       3.70720000       1.55160000
C        1.25720000       2.79120000       1.24880000
H       -0.87060000       1.34080000       0.01680000
H        2.20510000       1.34500000      -0.01180000
H        2.01540000       2.62900000      -1.97290000
H        0.33270000       4.19360000      -2.49510000
H       -1.59450000       4.70180000      -1.13860000
H       -1.57250000       4.68920000       1.22160000
H        0.37970000       4.16680000       2.53630000
H        2.05220000       2.60800000       1.96620000
