17
Properties=species:S:1:pos:R:3 gdb_35370=T pbc="F F F"
N       -0.09670000      -1.17330000      -0.20740000
C       -0.04740000      -0.02320000      -0.10730000
C       -0.00600000       1.43140000       0.04560000
C       -0.64880000       1.95130000       1.37890000
C        0.25680000       3.13690000       1.69350000
C        1.74490000       2.87570000       1.91580000
C        2.11580000       1.55000000       1.26920000
N        1.37880000       1.96090000       0.00970000
C        1.23550000       3.33850000       0.57180000
H       -0.53690000       1.87340000      -0.80500000
H       -1.68780000       2.25560000       1.22870000
H       -0.63760000       1.18430000       2.15780000
H       -0.14810000       4.00680000       2.19730000
H        2.31820000       3.42570000       2.65170000
H        3.18260000       1.45920000       1.05300000
H        1.76510000       0.62020000       1.72990000
H        1.40040000       4.22720000      -0.02280000
