13
Properties=species:S:1:pos:R:3 gdb_132414=T pbc="F F F"
F        0.02160000       0.04520000       0.00310000
C       -0.00630000       1.37270000       0.01080000
N       -1.18600000       1.93230000       0.02990000
C       -1.22130000       3.27680000       0.03770000
C       -2.56110000       3.94010000       0.05960000
O       -3.61740000       3.36590000       0.07090000
C       -0.07520000       4.06590000       0.02630000
C        1.17050000       3.43520000       0.00580000
C        1.21800000       2.05200000      -0.00230000
H       -2.50030000       5.05230000       0.06470000
H       -0.15840000       5.14700000       0.03320000
H        2.08670000       4.01540000      -0.00360000
H        2.14780000       1.49760000      -0.01800000
