15
Properties=species:S:1:pos:R:3 gdb_46477=T pbc="F F F"
O        0.00700000       0.04610000       0.27670000
C       -0.02920000       1.22780000       0.07690000
C       -1.23570000       2.09820000      -0.23910000
O       -0.80790000       3.45610000      -0.14750000
C        0.59860000       3.52450000      -0.22780000
C        1.25030000       4.42820000      -1.26760000
C        1.27920000       4.79820000       0.18610000
C        1.18400000       2.19550000       0.05000000
O        2.34190000       1.89240000       0.18690000
H       -1.60020000       1.86290000      -1.25120000
H       -2.05300000       1.92910000       0.46790000
H        2.16050000       4.06480000      -1.73180000
H        0.56030000       4.96070000      -1.91210000
H        0.61970000       5.59080000       0.52070000
H        2.21070000       4.68940000       0.73100000
