17
Properties=species:S:1:pos:R:3 gdb_45231=T pbc="F F F"
N       -0.04930000       1.30830000      -0.26730000
C       -0.00550000       0.07220000      -0.01820000
O        1.13100000      -0.68600000       0.13840000
C        0.67410000      -1.98670000       0.58130000
C       -0.03440000      -1.75750000       1.94490000
N       -1.43390000      -1.51540000       1.48390000
C       -1.63850000      -2.80480000       0.70780000
C       -0.59000000      -2.26870000      -0.27580000
C       -1.16370000      -0.87560000       0.08930000
H        0.89420000       1.69780000      -0.32310000
H        1.51310000      -2.67720000       0.53250000
H       -0.01180000      -2.61880000       2.61650000
H        0.37560000      -0.88720000       2.46080000
H       -1.44520000      -3.71940000       1.27510000
H       -2.64510000      -2.83240000       0.28440000
H       -0.44240000      -2.61470000      -1.29910000
H       -2.09040000      -0.53660000      -0.36460000
