15
Properties=species:S:1:pos:R:3 gdb_130349=T pbc="F F F"
N       -0.18980000       1.52520000      -0.13850000
C        0.04180000       0.08480000       0.00610000
C       -1.30910000      -0.70780000       0.02140000
O       -1.47930000      -1.38530000      -1.26200000
C       -0.25610000      -1.38330000      -1.83740000
C        0.39660000      -1.89420000      -2.90710000
O        1.68160000      -1.43330000      -2.86870000
N        1.86820000      -0.61050000      -1.75390000
C        0.70390000      -0.60100000      -1.16540000
H        0.70430000       2.00910000      -0.13640000
H       -0.60240000       1.71300000      -1.04970000
H        0.57840000      -0.07110000       0.94530000
H       -1.30700000      -1.47450000       0.80230000
H       -2.15950000      -0.03980000       0.16600000
H        0.15160000      -2.54260000      -3.73040000
