20
Properties=species:S:1:pos:R:3 gdb_84794=T pbc="F F F"
C        0.30370000       1.66270000      -0.28440000
C       -0.02180000       0.21430000       0.12280000
C       -0.01800000      -0.71420000      -1.07250000
C        1.00570000      -1.56390000      -1.06410000
C        1.87750000      -1.39540000       0.15430000
C        1.03540000      -0.47440000       1.06970000
C        1.88450000       0.52110000       1.85370000
N        1.34900000       0.91600000       3.04760000
O        2.93890000       0.96960000       1.44280000
H        1.30810000       1.73550000      -0.70910000
H       -0.41360000       2.01410000      -1.03320000
H        0.25000000       2.33880000       0.57470000
H       -1.00210000       0.21910000       0.61660000
H       -0.75110000      -0.61910000      -1.86690000
H        1.23180000      -2.28030000      -1.84630000
H        2.11950000      -2.34550000       0.64420000
H        2.83140000      -0.91400000      -0.09250000
H        0.47650000      -1.09790000       1.77620000
H        0.52040000       0.49670000       3.43030000
H        1.86860000       1.56870000       3.61140000
