17
Properties=species:S:1:pos:R:3 gdb_65707=T pbc="F F F"
C        0.04760000       1.55260000      -0.37670000
C        0.00770000       0.08310000      -0.02930000
C        1.21040000      -0.77920000      -0.12270000
C        0.61720000      -0.49270000       1.25620000
C        1.35410000       0.36470000       2.21580000
O        1.26440000       0.26750000       3.41400000
O       -1.18220000      -0.55560000      -0.46580000
C       -2.29830000      -0.37500000       0.28340000
O       -3.35880000      -0.80920000      -0.04540000
H        1.01970000       1.99130000      -0.14120000
H       -0.13370000       1.67500000      -1.44870000
H       -0.71880000       2.11500000       0.16600000
H        1.08450000      -1.78460000      -0.50510000
H        2.15380000      -0.30270000      -0.36840000
H        0.05730000      -1.29480000       1.72430000
H        2.02840000       1.12000000       1.75030000
H       -2.10700000       0.19220000       1.21220000
