18
Properties=species:S:1:pos:R:3 gdb_113997=T pbc="F F F"
O       -0.07280000       1.24970000      -0.81330000
C        0.03480000       0.20480000       0.13750000
C       -1.29070000      -0.49360000       0.31520000
O       -1.68220000      -1.37610000      -0.75300000
C       -1.47920000      -1.93440000       0.55070000
C       -0.37570000      -2.95600000       0.69360000
C       -0.75890000      -4.26030000      -0.04020000
C        0.26890000      -5.29060000       0.07980000
N        1.09340000      -6.09280000       0.18790000
H       -0.35910000       0.84910000      -1.64200000
H        0.81790000      -0.51240000      -0.14220000
H        0.33210000       0.67760000       1.08000000
H       -2.09250000       0.17200000       0.63970000
H       -2.41180000      -2.22300000       1.04280000
H        0.56430000      -2.58080000       0.28500000
H       -0.21110000      -3.16580000       1.75610000
H       -1.70070000      -4.65850000       0.35520000
H       -0.92610000      -4.04380000      -1.10060000
