20
Properties=species:S:1:pos:R:3 gdb_22564=T pbc="F F F"
C       -0.20490000       1.45720000       0.18500000
C        0.00000000      -0.04430000       0.03070000
C        0.83960000      -0.48970000      -1.23120000
C        0.93710000       0.38740000      -2.47190000
C        2.02430000      -0.58570000      -0.29330000
N        3.26010000      -0.41590000      -0.51080000
O        3.98090000      -0.44840000       0.71850000
C        1.14870000      -0.60830000       0.94490000
O        1.53220000       0.17800000       2.04090000
H        0.73820000       2.00550000       0.10470000
H       -0.89090000       1.83910000      -0.57750000
H       -0.62360000       1.68270000       1.16920000
H       -0.95160000      -0.57060000       0.13780000
H        0.52960000      -1.50110000      -1.52360000
H        1.24560000       1.40540000      -2.22170000
H        1.67550000      -0.02090000      -3.16830000
H       -0.02590000       0.43680000      -2.99030000
H        4.87240000      -0.21440000       0.44060000
H        0.92630000      -1.64330000       1.24980000
H        2.49710000       0.15620000       2.06760000
