14
Properties=species:S:1:pos:R:3 gdb_43511=T pbc="F F F"
N       -0.06690000       1.26190000       0.52330000
C       -0.02160000       0.06530000       0.15020000
C       -1.18840000      -0.80650000      -0.24520000
C       -0.61020000      -2.23400000      -0.16770000
C       -1.10810000      -3.17910000      -1.15000000
C       -1.53880000      -3.94230000      -1.97020000
C        0.91040000      -1.99380000      -0.25550000
O        1.78280000      -2.76830000      -0.47600000
O        1.15580000      -0.66450000       0.02020000
H        0.86690000       1.62800000       0.71530000
H       -2.04830000      -0.63410000       0.40090000
H       -1.48330000      -0.57000000      -1.27190000
H       -0.77240000      -2.63960000       0.84130000
H       -1.90820000      -4.62610000      -2.69440000
