15
Properties=species:S:1:pos:R:3 gdb_17952=T pbc="F F F"
O       -0.07080000       1.40780000      -0.05800000
C        0.03690000       0.03860000      -0.01640000
C       -1.02330000      -1.03140000       0.03700000
N       -0.45260000      -1.74360000      -1.10800000
C        0.79090000      -0.90860000      -1.00030000
C        1.81980000      -1.57840000      -0.09590000
O        1.11390000      -1.79780000       1.13720000
C        0.03300000      -0.89010000       1.15210000
H        0.62270000       1.78880000       0.49210000
H       -2.09180000      -0.97080000       0.21210000
H       -0.27270000      -2.72760000      -0.90670000
H        1.16270000      -0.51380000      -1.94710000
H        2.16930000      -2.54900000      -0.46420000
H        2.69570000      -0.92710000       0.06390000
H       -0.27620000      -0.56920000       2.13990000
