18
Properties=species:S:1:pos:R:3 gdb_62147=T pbc="F F F"
O       -0.13360000       1.35470000      -0.03070000
C       -0.02420000      -0.05480000       0.02720000
C        0.63800000      -0.63660000      -1.23030000
C       -0.12270000      -0.26280000      -2.51210000
C        0.66080000      -0.60910000      -3.75670000
O        0.26290000      -1.30270000      -4.65540000
C        0.72120000      -0.51600000       1.30070000
C        0.11110000      -0.01170000       2.52830000
N       -0.37170000       0.37780000       3.50260000
H        0.75330000       1.73400000      -0.03380000
H       -1.05920000      -0.40950000       0.08720000
H        1.67220000      -0.26430000      -1.28790000
H        0.70530000      -1.72720000      -1.13840000
H       -1.09720000      -0.75680000      -2.56030000
H       -0.28840000       0.82300000      -2.50500000
H        1.68270000      -0.15950000      -3.79030000
H        0.74700000      -1.61060000       1.34240000
H        1.76530000      -0.17850000       1.26040000
