16
Properties=species:S:1:pos:R:3 gdb_133679=T pbc="F F F"
C       -0.06120000       1.58690000       0.06010000
C        0.02410000       0.05870000       0.00070000
C        0.71680000      -0.45110000      -1.28720000
C       -0.03710000      -0.13370000      -2.49240000
C       -0.67680000       0.13170000      -3.47450000
C        0.75220000      -0.49290000       1.21900000
F        0.16700000      -0.10290000       2.36120000
F        0.76790000      -1.83740000       1.21970000
F        2.03270000      -0.08280000       1.26320000
H        0.93920000       2.02980000       0.07920000
H       -0.58600000       1.96050000      -0.82170000
H       -0.59810000       1.91530000       0.95260000
H       -0.98410000      -0.36730000       0.04170000
H        1.72100000      -0.01450000      -1.34950000
H        0.85300000      -1.53570000      -1.21590000
H       -1.23070000       0.35760000      -4.35190000
