17
Properties=species:S:1:pos:R:3 gdb_16386=T pbc="F F F"
C       -0.04150000       1.36520000      -0.12740000
N       -0.03300000      -0.04270000       0.18450000
C       -1.18310000      -0.96460000       0.04160000
C       -0.74620000      -2.10800000       0.99510000
C        0.38150000      -2.24900000      -0.07990000
C       -0.72880000      -1.88460000      -1.13240000
C        1.06450000      -0.87080000       0.03180000
O        2.23060000      -0.55990000      -0.03900000
H        0.99400000       1.71190000      -0.09690000
H       -0.44840000       1.57010000      -1.12820000
H       -0.62570000       1.93170000       0.60600000
H       -2.15000000      -0.46680000       0.09290000
H       -0.46000000      -1.82740000       2.01080000
H       -1.43210000      -2.95790000       0.99650000
H        1.03860000      -3.11040000      -0.16500000
H       -1.41020000      -2.71400000      -1.33600000
H       -0.41740000      -1.40050000      -2.06160000
