18
Properties=species:S:1:pos:R:3 gdb_17696=T pbc="F F F"
C        0.07110000       1.54430000       0.03470000
C       -0.02440000       0.05440000      -0.00590000
C        0.88980000      -1.00920000      -0.57770000
C        0.51080000      -1.02540000       0.91140000
C       -0.76960000      -1.88990000       0.85720000
C       -0.51440000      -3.02600000      -0.16410000
C       -0.25610000      -1.86800000      -1.15980000
C       -1.20200000      -0.92900000      -0.31640000
H        1.08720000       1.86150000       0.29540000
H       -0.17550000       1.99050000      -0.93620000
H       -0.61010000       1.97160000       0.78030000
H        1.91480000      -0.91750000      -0.91450000
H        1.24950000      -0.94590000       1.69910000
H       -1.34640000      -2.03300000       1.77030000
H        0.29120000      -3.74050000       0.03320000
H       -1.43800000      -3.56330000      -0.40500000
H       -0.32550000      -1.98950000      -2.24010000
H       -2.23040000      -0.68730000      -0.57560000
