20
Properties=species:S:1:pos:R:3 gdb_68996=T pbc="F F F"
C        0.04280000       1.55760000      -0.01210000
C        0.05040000       0.05830000       0.02970000
C       -0.92070000      -0.78420000       0.84130000
C        0.55490000      -0.94920000       1.05510000
O        1.10090000      -1.81050000       0.04240000
C        0.71850000      -0.85790000      -0.99040000
C        1.29880000      -0.85850000       2.33090000
C        2.04680000      -2.04450000       2.82240000
N        2.77070000      -0.86380000       2.31620000
H        1.02910000       1.95600000      -0.27440000
H       -0.67730000       1.93260000      -0.74960000
H       -0.23760000       1.97730000       0.95920000
H       -1.44730000      -0.23420000       1.61610000
H       -1.48740000      -1.59210000       0.38460000
H        0.08800000      -1.31880000      -1.76010000
H        1.60890000      -0.41850000      -1.45560000
H        0.85890000      -0.17740000       3.05590000
H        2.13880000      -2.22080000       3.89020000
H        2.02640000      -2.93680000       2.20390000
H        3.07240000      -1.06520000       1.36410000
