20
Properties=species:S:1:pos:R:3 gdb_122575=T pbc="F F F"
C        0.01410000       1.52650000       0.10580000
C        0.05050000      -0.00010000       0.00080000
C        0.67620000      -0.47260000      -1.30280000
O        0.66520000      -1.89870000      -1.31710000
C        1.27380000      -2.47270000      -2.41730000
C        1.24280000      -4.00890000      -2.28810000
N        0.25920000      -4.46560000      -3.28220000
C       -0.06480000      -3.42990000      -3.93360000
O        0.49810000      -2.23180000      -3.62520000
H        1.02170000       1.95490000       0.06510000
H       -0.56710000       1.96910000      -0.71060000
H       -0.44260000       1.84330000       1.04760000
H        0.61640000      -0.42670000       0.83690000
H       -0.96350000      -0.41020000       0.06790000
H        0.11810000      -0.08680000      -2.16610000
H        1.71420000      -0.11120000      -1.39030000
H        2.26180000      -2.03050000      -2.59960000
H        2.21710000      -4.46270000      -2.49550000
H        0.93850000      -4.29200000      -1.27720000
H       -0.76890000      -3.39750000      -4.75780000
