18
Properties=species:S:1:pos:R:3 gdb_37756=T pbc="F F F"
C       -0.03870000       1.56540000       0.08630000
N        1.50410000       1.38260000       0.03670000
C        1.30870000       0.12070000       0.87210000
C        2.16150000      -1.02380000       0.36990000
C        1.88210000      -0.98860000      -0.95330000
C        0.78950000      -1.95620000      -1.42620000
C       -0.50190000      -1.29220000      -0.68000000
C        0.07550000       0.04230000      -0.16340000
C        1.23170000       0.37950000      -1.10710000
H       -0.39520000       1.91610000       1.05950000
H       -0.42500000       2.19190000      -0.72260000
H        1.16350000       0.28510000       1.94210000
H        2.34750000      -1.91760000       0.95620000
H        0.62840000      -1.96040000      -2.50780000
H        0.95530000      -2.98240000      -1.09360000
H       -1.29070000      -1.11770000      -1.41680000
H       -0.90040000      -1.94860000       0.09820000
H        1.05440000       0.80990000      -2.09390000
