25
Properties=species:S:1:pos:R:3 gdb_108790=T pbc="F F F"
C        0.15390000       1.44710000       0.49760000
C       -0.02330000       0.10210000      -0.22930000
C       -1.41830000      -0.44680000      -0.14790000
C       -2.26370000      -0.64350000      -1.16140000
C       -3.58270000      -1.27110000      -0.75000000
C       -4.79240000      -0.53830000      -1.35260000
C       -3.61900000      -2.75520000      -1.17270000
C       -3.52450000      -1.12220000       0.80150000
C       -2.03430000      -0.91200000       1.15940000
H        1.18340000       1.80660000       0.40470000
H       -0.51120000       2.20760000       0.07650000
H       -0.07200000       1.36040000       1.56500000
H        0.25960000       0.21820000      -1.28180000
H        0.67910000      -0.62550000       0.20270000
H       -2.03580000      -0.43140000      -2.20290000
H       -4.80720000      -0.62770000      -2.44490000
H       -5.73290000      -0.95590000      -0.97450000
H       -4.77090000       0.52750000      -1.10300000
H       -2.79950000      -3.31710000      -0.71330000
H       -4.56390000      -3.22420000      -0.87420000
H       -3.52390000      -2.85830000      -2.25940000
H       -4.09600000      -0.23650000       1.09830000
H       -3.97010000      -1.97850000       1.31670000
H       -1.55120000      -1.84170000       1.49430000
H       -1.90200000      -0.19470000       1.97730000
