18
Properties=species:S:1:pos:R:3 gdb_35128=T pbc="F F F"
C       -0.39490000      -1.13450000      -0.39600000
C       -0.03190000      -0.00900000      -0.18080000
C        0.38810000       1.35820000       0.07980000
C       -0.14340000       2.01560000       1.38100000
C        1.32840000       1.95340000       1.85270000
O        1.75890000       1.45400000       0.56020000
C        2.01010000       3.24390000       2.22560000
C        3.42180000       3.47700000       1.84380000
N        2.33330000       4.23390000       1.19030000
H       -0.71020000      -2.12990000      -0.59080000
H        0.25830000       1.96350000      -0.82530000
H       -0.52530000       3.02720000       1.23680000
H       -0.85950000       1.42170000       1.94700000
H        1.50180000       1.20210000       2.63510000
H        1.64080000       3.67450000       3.15570000
H        4.07060000       4.06270000       2.48830000
H        3.91640000       2.70250000       1.26480000
H        2.16870000       3.80160000       0.28190000
