22
Properties=species:S:1:pos:R:3 gdb_62836=T pbc="F F F"
C       -0.09430000       1.47980000       0.03620000
C        0.04220000      -0.04970000       0.04750000
C       -1.25650000      -0.61160000      -0.54370000
N        1.28900000      -0.64410000      -0.65760000
C        2.10220000      -0.06910000       0.53940000
C        0.85090000      -0.69180000       1.24460000
C        0.16810000      -1.55930000       2.33410000
C       -0.03700000      -2.63730000       1.17780000
C        1.09870000      -1.87430000       0.37230000
H        0.57960000       2.00090000       0.71730000
H        0.07690000       1.86180000      -0.97710000
H       -1.11500000       1.75450000       0.32050000
H       -1.57720000       0.04450000      -1.35960000
H       -1.13980000      -1.60930000      -0.96410000
H       -2.06540000      -0.62590000       0.19540000
H        3.04990000      -0.58530000       0.70650000
H        2.25510000       1.00740000       0.47110000
H        0.85620000      -1.91920000       3.10400000
H       -0.73010000      -1.16200000       2.81580000
H        0.26110000      -3.65690000       1.43400000
H       -1.04920000      -2.66380000       0.78480000
H        2.04950000      -2.40540000       0.44970000
