19
Properties=species:S:1:pos:R:3 gdb_95492=T pbc="F F F"
O        0.11760000       1.32320000       0.33440000
C        0.02090000      -0.07510000       0.07670000
C       -1.47370000      -0.38670000       0.06250000
C       -1.83000000      -1.85600000       0.28780000
C       -1.25540000      -2.89230000      -0.63410000
C       -0.17370000      -2.88700000      -1.42560000
C        0.86790000      -1.86100000      -1.66830000
O        1.87430000      -2.19730000      -2.26690000
C        0.71730000      -0.40340000      -1.24810000
H        1.04520000       1.57540000       0.28090000
H        0.50030000      -0.64080000       0.89420000
H       -1.93720000       0.20770000       0.85610000
H       -1.90140000      -0.03470000      -0.88400000
H       -1.55140000      -2.14710000       1.31330000
H       -2.92220000      -1.95800000       0.26220000
H       -1.80670000      -3.83230000      -0.60750000
H        0.06460000      -3.80180000      -1.96270000
H        0.17210000       0.11220000      -2.05120000
H        1.73400000       0.00450000      -1.25140000
