17
Properties=species:S:1:pos:R:3 gdb_12543=T pbc="F F F"
C        0.05840000       1.54470000       0.10320000
C        0.01540000       0.02450000       0.01850000
C        0.49560000      -0.48600000      -1.34380000
N        0.48780000      -1.91300000      -1.60020000
C        0.81370000      -2.81210000      -0.78080000
O        1.16080000      -2.77400000       0.53760000
C        0.59020000      -1.79660000       1.40490000
O        0.84180000      -0.48070000       1.06970000
H        1.08030000       1.90710000      -0.04400000
H       -0.58270000       1.99250000      -0.66130000
H       -0.28480000       1.87940000       1.08510000
H       -1.01510000      -0.32990000       0.18700000
H       -0.11410000      -0.00830000      -2.11980000
H        1.52480000      -0.12760000      -1.49210000
H        0.89760000      -3.84110000      -1.13220000
H       -0.49490000      -1.98430000       1.45690000
H        1.05990000      -1.98610000       2.37130000
