20
Properties=species:S:1:pos:R:3 gdb_79839=T pbc="F F F"
C       -0.37450000       1.48640000       0.04470000
C        0.06880000       0.03520000       0.00420000
C        1.07580000      -0.48040000      -1.05400000
O        2.02800000       0.51390000      -1.40840000
C        2.75810000       0.83950000      -0.21880000
C        2.37540000      -0.22630000       0.78980000
N        0.93950000      -0.49550000       1.12390000
C        1.68710000      -1.32460000       0.09520000
C        1.91400000      -2.79970000       0.18500000
H        0.44150000       2.18300000      -0.15240000
H       -1.14960000       1.66450000      -0.70840000
H       -0.79940000       1.71620000       1.02740000
H       -0.81500000      -0.61350000       0.01030000
H        0.70760000      -0.94970000      -1.96660000
H        3.83400000       0.79800000      -0.43480000
H        2.52100000       1.85690000       0.11530000
H        3.03670000      -0.42100000       1.62740000
H        1.00410000      -3.36140000      -0.05290000
H        2.69690000      -3.11780000      -0.51280000
H        2.22430000      -3.07720000       1.19670000
