13
Properties=species:S:1:pos:R:3 gdb_25348=T pbc="F F F"
O       -0.90150000       1.18910000       0.13960000
C        0.22940000       0.84200000      -0.08750000
C        1.40860000       1.77710000      -0.02070000
N        2.56360000       1.22860000      -0.29810000
C        3.71410000       2.00660000      -0.26440000
O        4.83150000       1.61150000      -0.50100000
N        3.51110000       3.37070000       0.08100000
C        2.30890000       3.91930000       0.36440000
C        1.19480000       3.13900000       0.32550000
H        0.50700000      -0.19350000      -0.36560000
H        4.35500000       3.92640000       0.10210000
H        2.30180000       4.97490000       0.61230000
H        0.20370000       3.50870000       0.53990000
