25
Properties=species:S:1:pos:R:3 gdb_102635=T pbc="F F F"
C       -0.05070000       1.53360000       0.15790000
C       -0.06180000       0.00560000       0.01280000
C       -1.50220000      -0.51640000      -0.08850000
C        0.75520000      -0.47780000      -1.20280000
C        2.24740000      -0.09840000      -1.25700000
C        3.00880000      -0.65690000      -0.05260000
O        4.38270000      -0.26630000      -0.14560000
C        2.86520000      -0.59160000      -2.58100000
O        4.12090000      -0.01940000      -2.87710000
H        0.95740000       1.92740000       0.31730000
H       -0.45630000       2.01350000      -0.74110000
H       -0.66600000       1.84860000       1.00710000
H        0.37710000      -0.42410000       0.92390000
H       -2.00240000      -0.11340000      -0.97740000
H       -1.52800000      -1.60890000      -0.16040000
H       -2.09280000      -0.22280000       0.78540000
H        0.66730000      -1.57200000      -1.26810000
H        0.27610000      -0.08680000      -2.11100000
H        2.35310000       0.99350000      -1.24780000
H        2.58020000      -0.28290000       0.88720000
H        2.92010000      -1.75530000      -0.04640000
H        4.87970000      -0.72170000       0.53970000
H        2.91630000      -1.69650000      -2.55890000
H        2.20040000      -0.32420000      -3.41080000
H        4.64720000      -0.10170000      -2.07080000
