21
Properties=species:S:1:pos:R:3 gdb_89522=T pbc="F F F"
C        0.30270000       1.61240000       0.17070000
C        0.10930000       0.11000000       0.03780000
C        1.02610000      -0.68520000      -0.94160000
C        1.34080000      -1.71420000       0.19250000
O        0.73280000      -2.97750000       0.04550000
C        2.78390000      -1.74590000       0.70850000
C        2.87040000      -0.45140000       1.52620000
O        1.56900000      -0.24590000       2.07680000
C        0.59530000      -0.80220000       1.20990000
H        1.33780000       1.86440000       0.41870000
H        0.04510000       2.12230000      -0.76410000
H       -0.33090000       2.02270000       0.96390000
H       -0.94250000      -0.11070000      -0.17120000
H        0.52670000      -1.12050000      -1.81050000
H        1.90240000      -0.12430000      -1.28310000
H        1.14360000      -3.42130000      -0.70420000
H        2.89570000      -2.62130000       1.35570000
H        3.53490000      -1.79310000      -0.08630000
H        3.57960000      -0.50500000       2.35670000
H        3.16090000       0.39730000       0.88770000
H       -0.18510000      -1.26490000       1.81840000
