21
Properties=species:S:1:pos:R:3 gdb_32840=T pbc="F F F"
C        0.09790000       1.61840000       0.09680000
C        0.19310000       0.09480000      -0.00570000
C        0.59470000      -0.56770000       1.32750000
C        0.65660000      -2.05960000       1.24850000
N       -0.35600000      -2.88510000       1.41070000
C        0.14010000      -4.15620000       1.19990000
C       -0.73240000      -5.36450000       1.30720000
C        1.47660000      -4.09030000       0.90510000
N        1.79550000      -2.74700000       0.93730000
H        1.05680000       2.05920000       0.39280000
H       -0.19100000       2.06330000      -0.86040000
H       -0.64690000       1.91870000       0.84210000
H       -0.76820000      -0.32430000      -0.32280000
H        0.91970000      -0.18200000      -0.78020000
H        1.56290000      -0.16910000       1.65810000
H       -0.13780000      -0.30320000       2.09670000
H       -0.16570000      -6.27900000       1.11060000
H       -1.17440000      -5.44470000       2.30640000
H       -1.56220000      -5.31710000       0.59350000
H        2.21270000      -4.84730000       0.69040000
H        2.70470000      -2.34900000       0.77370000
