18
Properties=species:S:1:pos:R:3 gdb_83463=T pbc="F F F"
C        0.01800000       1.56760000       0.06570000
C        0.06140000       0.06160000       0.16180000
C        1.24390000      -0.78710000      -0.20200000
O        2.47640000      -0.12340000       0.08960000
C        2.16060000      -0.09140000       1.50590000
C        0.78460000      -0.70750000       1.24810000
N        0.12940000      -1.63460000       2.09160000
C       -0.99410000      -1.33910000       2.81710000
O       -1.59110000      -0.28780000       2.79210000
H        1.01890000       1.99800000       0.14900000
H       -0.39420000       1.87760000      -0.89990000
H       -0.61450000       1.97830000       0.85790000
H       -0.87350000      -0.44000000      -0.07940000
H        1.26120000      -1.58970000      -0.93120000
H        2.83070000      -0.75810000       2.06270000
H        2.20450000       0.91780000       1.92990000
H        0.56300000      -2.53140000       2.25640000
H       -1.31040000      -2.20320000       3.43580000
