20
Properties=species:S:1:pos:R:3 gdb_81052=T pbc="F F F"
C       -0.19640000       1.49120000      -0.07160000
C        0.08940000       0.00620000       0.03280000
N        1.30450000      -0.56940000      -0.73370000
C        2.15270000      -0.04750000       0.43940000
C        0.93300000      -0.66210000       1.17470000
C        1.09550000      -1.80990000       0.16120000
C        0.61710000      -0.76710000       2.64490000
C        0.74160000       0.50320000       3.46480000
O        0.27260000      -1.82300000       3.12860000
H       -0.42360000       1.74300000      -1.11290000
H       -1.07760000       1.74240000       0.52840000
H        0.62540000       2.13160000       0.25520000
H       -0.81780000      -0.55410000      -0.21860000
H        3.10830000      -0.56780000       0.54440000
H        2.29990000       1.03230000       0.44580000
H        0.21210000      -2.39640000      -0.09960000
H        1.98550000      -2.43710000       0.24480000
H        0.14010000       1.30640000       3.02440000
H        0.42070000       0.31750000       4.49060000
H        1.78140000       0.85070000       3.46240000
