15
Properties=species:S:1:pos:R:3 gdb_56806=T pbc="F F F"
O        1.07990000       1.38730000      -0.54160000
C        0.27580000       0.38590000       0.01100000
C        0.00290000      -0.70160000      -0.96190000
N       -0.21060000      -1.53820000      -1.72870000
C        0.92050000      -0.20220000       1.24790000
N        2.11290000       0.06100000       1.58290000
C        2.36620000      -0.69810000       2.81960000
C        1.04860000      -1.48320000       3.06560000
O        0.17280000      -1.03590000       1.99260000
H        1.96620000       1.25590000      -0.16800000
H       -0.69490000       0.81490000       0.29560000
H        3.22790000      -1.35730000       2.68160000
H        2.60530000      -0.00820000       3.63490000
H        1.16080000      -2.56610000       2.97530000
H        0.56200000      -1.24820000       4.01430000
