17
Properties=species:S:1:pos:R:3 gdb_87616=T pbc="F F F"
O       -0.11510000       1.43420000      -0.03390000
C       -0.05670000       0.04170000       0.01040000
C       -0.46700000      -0.68220000       1.24670000
C       -1.39860000      -0.66830000       0.03130000
C       -2.70700000       0.02200000      -0.03050000
C       -3.58960000      -0.67380000      -0.75390000
C       -3.00410000      -1.95170000      -1.29900000
C       -1.56100000      -1.93100000      -0.76950000
O       -0.70970000      -2.76680000      -0.95380000
H        0.61640000       1.77890000       0.48930000
H        0.70170000      -0.42490000      -0.61820000
H        0.00800000      -1.63230000       1.46860000
H       -0.78120000      -0.08690000       2.09730000
H       -2.88670000       0.97630000       0.44680000
H       -4.61140000      -0.36990000      -0.94590000
H       -3.51670000      -2.85850000      -0.95360000
H       -3.00050000      -2.00300000      -2.39540000
