16
Properties=species:S:1:pos:R:3 gdb_43680=T pbc="F F F"
N       -0.09810000       1.29330000       0.38970000
C       -0.05020000       0.06670000       0.06360000
O        1.14870000      -0.55820000      -0.17490000
C        1.13300000      -1.78210000      -0.93720000
C        0.09700000      -2.77220000      -0.38010000
C       -1.21540000      -2.07490000      -0.16440000
C       -1.26430000      -0.75350000       0.01250000
C        0.92800000      -1.50700000      -2.36140000
C        0.77330000      -1.28940000      -3.53250000
H        0.84320000       1.69200000       0.38240000
H        2.14050000      -2.18620000      -0.79990000
H       -0.00810000      -3.61020000      -1.07580000
H        0.46670000      -3.18940000       0.56620000
H       -2.12120000      -2.67300000      -0.14370000
H       -2.18910000      -0.21370000       0.17270000
H        0.63610000      -1.08970000      -4.56690000
