15
Properties=species:S:1:pos:R:3 gdb_28743=T pbc="F F F"
N        0.00570000       1.30200000       0.04130000
C       -0.10560000      -0.06400000       0.03740000
N       -1.17750000      -0.77960000       0.18290000
C       -0.69710000      -2.08760000       0.18360000
C        0.64600000      -2.09630000       0.03690000
C        1.70170000      -3.13530000      -0.07360000
C        2.17700000      -3.33620000      -1.51100000
O        2.36370000      -4.41040000      -2.01600000
O        1.04670000      -0.76620000      -0.06220000
H        0.77920000       1.67070000      -0.49190000
H       -0.87110000       1.76840000      -0.13770000
H       -1.36070000      -2.93130000       0.29170000
H        2.57790000      -2.84620000       0.52500000
H        1.33920000      -4.09320000       0.30620000
H        2.34270000      -2.39040000      -2.07390000
