16
Properties=species:S:1:pos:R:3 gdb_18301=T pbc="F F F"
O        0.12290000       1.35530000       0.14780000
C        0.00900000      -0.02490000       0.05210000
C       -1.35360000      -0.68970000       0.01020000
C       -2.62790000       0.13560000       0.00990000
O       -2.67390000       1.08880000      -1.05560000
C       -2.23120000       0.54040000      -2.25910000
O       -0.83930000       0.29350000      -2.22920000
C       -0.48130000      -0.63570000      -1.23640000
H       -0.21060000       1.71910000      -0.68450000
H        0.80040000      -0.53740000       0.59090000
H       -1.44520000      -1.65650000       0.49600000
H       -3.49600000      -0.53660000      -0.06990000
H       -2.72530000       0.71760000       0.93030000
H       -2.77220000      -0.39370000      -2.48860000
H       -2.39760000       1.28360000      -3.04070000
H       -0.02830000      -1.53810000      -1.63810000
