20
Properties=species:S:1:pos:R:3 gdb_70885=T pbc="F F F"
C       -0.12010000       1.46940000      -0.02180000
C       -0.01150000      -0.02070000      -0.09620000
C        0.94090000      -0.85170000      -0.95670000
C        0.11570000      -2.07530000      -0.46990000
O       -0.05850000      -3.21200000      -1.24400000
C        0.41630000      -2.09740000       1.03880000
N       -0.32640000      -0.80090000       1.17090000
C       -1.05650000      -1.07750000      -0.10580000
C       -2.53580000      -1.11490000      -0.27690000
H        0.79380000       1.90760000       0.39530000
H       -0.27960000       1.90340000      -1.01500000
H       -0.95320000       1.76050000       0.62370000
H        0.77200000      -0.65770000      -2.01970000
H        2.01490000      -0.83440000      -0.73330000
H        0.80640000      -3.54460000      -1.50810000
H       -0.13800000      -2.87390000       1.57260000
H        1.46150000      -2.08210000       1.37250000
H       -2.99350000      -0.23570000       0.18720000
H       -2.80880000      -1.12660000      -1.33740000
H       -2.96770000      -2.00690000       0.19000000
