16
Properties=species:S:1:pos:R:3 gdb_57140=T pbc="F F F"
O       -0.69070000       0.94040000       0.11850000
C       -0.35670000      -0.43720000      -0.04220000
C        0.51860000      -0.66160000      -1.18980000
C        1.27070000      -0.83020000      -2.12360000
C        2.11250000      -1.01870000      -3.17540000
C        2.86030000      -1.18510000      -4.10850000
C        0.25150000      -1.03100000       1.23340000
C        1.15070000      -0.22290000       2.08560000
N       -0.21980000      -0.54650000       2.53030000
H        0.08270000       1.46310000      -0.11920000
H       -1.31620000      -0.94120000      -0.22170000
H        3.51670000      -1.33280000      -4.93010000
H        0.40130000      -2.10660000       1.17380000
H        1.94660000      -0.70490000       2.64490000
H        1.36160000       0.80030000       1.78640000
H       -0.80560000       0.27130000       2.36530000
