18
Properties=species:S:1:pos:R:3 gdb_83625=T pbc="F F F"
C        0.08770000       1.45930000       0.32580000
N       -0.00590000       0.08380000      -0.10630000
C       -1.20660000      -0.69220000      -0.11240000
C       -2.14200000      -0.98410000      -1.36050000
C       -1.97430000      -2.52310000      -1.07480000
C       -0.73220000      -2.09660000      -0.32860000
C        0.59910000      -2.13630000      -0.41210000
C        1.11870000      -0.75600000      -0.14330000
O        2.26770000      -0.38170000      -0.03980000
H        1.14810000       1.71760000       0.35790000
H       -0.42400000       2.13090000      -0.37240000
H       -0.34400000       1.60460000       1.32560000
H       -1.81960000      -0.52230000       0.78170000
H       -3.15340000      -0.57580000      -1.31410000
H       -1.65400000      -0.69730000      -2.29290000
H       -2.77160000      -2.90560000      -0.43120000
H       -1.84260000      -3.19220000      -1.92580000
H        1.24790000      -2.93000000      -0.75410000
