18
Properties=species:S:1:pos:R:3 gdb_69864=T pbc="F F F"
C       -0.10440000       1.51450000      -0.00700000
C       -0.05580000       0.01570000      -0.00760000
C       -0.87880000      -0.87310000       0.88580000
C        0.62560000      -0.96300000       0.91520000
N        1.31770000      -1.70400000      -0.21260000
C        0.32860000      -2.25450000      -1.14450000
C        0.57710000      -0.78770000      -1.18760000
C        1.22900000      -0.14240000      -2.27810000
C        1.74560000       0.42890000      -3.20330000
H        0.83980000       1.94150000      -0.35900000
H       -0.90130000       1.88670000      -0.66160000
H       -0.29710000       1.89300000       1.00150000
H       -1.27800000      -0.35070000       1.75110000
H       -1.53580000      -1.65760000       0.52820000
H        1.21160000      -0.80170000       1.81100000
H        0.79730000      -2.83120000      -1.93650000
H       -0.61090000      -2.66540000      -0.79410000
H        2.21280000       0.92460000      -4.01780000
