21
Properties=species:S:1:pos:R:3 gdb_106809=T pbc="F F F"
C       -0.04320000       1.55690000      -0.25310000
C       -0.02960000       0.08610000       0.18140000
C       -1.38300000      -0.56260000       0.08950000
C       -1.96960000      -1.11330000      -1.20630000
C       -1.70430000      -2.02150000      -0.01190000
C       -0.74960000      -3.17780000      -0.03910000
O       -2.79870000      -2.24570000       0.85740000
C       -3.33280000      -0.97790000       1.18060000
O       -2.30970000      -0.01790000       1.01120000
H        0.95300000       2.00050000      -0.16480000
H       -0.36760000       1.65530000      -1.29420000
H       -0.73190000       2.13510000       0.36880000
H        0.67190000      -0.48160000      -0.44060000
H        0.32440000       0.00570000       1.21630000
H       -2.99020000      -0.87330000      -1.48330000
H       -1.28850000      -1.20590000      -2.04660000
H        0.12450000      -2.94150000      -0.65160000
H       -0.41260000      -3.42310000       0.97270000
H       -1.22970000      -4.06510000      -0.46440000
H       -4.18680000      -0.74450000       0.52270000
H       -3.66340000      -0.97740000       2.22460000
