20
Properties=species:S:1:pos:R:3 gdb_97956=T pbc="F F F"
C        0.42910000       1.36560000       0.31380000
C       -0.31710000       0.13450000      -0.23210000
C        0.29350000      -0.41830000      -1.43740000
C        0.81050000      -0.84450000      -2.43890000
C        1.43850000      -1.39000000      -3.63710000
C        2.03450000      -2.78790000      -3.40410000
C        2.75190000      -3.31270000      -4.64640000
N        3.08380000      -4.63670000      -4.59470000
O        3.01010000      -2.61490000      -5.60800000
H        1.46260000       1.11290000       0.56610000
H        0.45130000       2.16680000      -0.42990000
H       -0.06360000       1.74390000       1.21460000
H       -0.35960000      -0.64020000       0.54480000
H       -1.36050000       0.40390000      -0.44210000
H        0.71260000      -1.44150000      -4.45700000
H        2.23320000      -0.72690000      -3.99470000
H        2.75360000      -2.75120000      -2.57640000
H        1.25260000      -3.49220000      -3.09820000
H        2.93760000      -5.19470000      -3.77200000
H        3.63150000      -5.01930000      -5.34790000
