13
Properties=species:S:1:pos:R:3 gdb_16784=T pbc="F F F"
N       -0.06500000       1.26430000      -0.06950000
C       -0.05440000       0.01280000       0.03920000
O        1.09860000      -0.74950000       0.21220000
C        0.83810000      -2.10420000       0.01030000
O        1.71780000      -2.89990000      -0.09290000
C       -0.64090000      -2.29360000      -0.05010000
C       -1.37480000      -1.80350000       1.17970000
C       -1.22760000      -0.89750000      -0.01590000
H        0.88000000       1.64700000      -0.01380000
H       -1.02920000      -3.11490000      -0.63540000
H       -2.35780000      -2.22810000       1.34470000
H       -0.81160000      -1.58920000       2.08080000
H       -2.09350000      -0.59050000      -0.58470000
