15
Properties=species:S:1:pos:R:3 gdb_131061=T pbc="F F F"
O       -0.13270000       0.04830000      -0.20940000
C        0.07320000       1.07790000       0.40100000
N        1.27860000       1.68480000       0.50220000
C        2.46380000       1.14350000      -0.13340000
C        3.55900000       2.16740000      -0.11010000
N        4.65370000       2.06640000      -0.84620000
N        5.34470000       3.17320000      -0.48120000
C        4.65430000       3.88070000       0.43000000
N        3.51370000       3.27180000       0.69350000
H       -0.71820000       1.63390000       0.94200000
H        1.39100000       2.53760000       1.02990000
H        2.79740000       0.22990000       0.37810000
H        2.23540000       0.85010000      -1.16240000
H        6.24080000       3.36470000      -0.89870000
H        5.00730000       4.80510000       0.86100000
