23
Properties=species:S:1:pos:R:3 gdb_93771=T pbc="F F F"
C       -0.14690000       1.58570000       0.01790000
C        0.01450000       0.05250000       0.03610000
C        0.67780000      -0.44420000      -1.22600000
C        1.91580000      -0.93950000      -1.30810000
C        2.50660000      -1.42100000      -2.60590000
C        2.80470000      -1.06690000      -0.09020000
C        2.28140000      -0.27220000       1.11360000
C        0.77160000      -0.46730000       1.27010000
O        0.25190000       0.19360000       2.41730000
H        0.82370000       2.09030000      -0.01390000
H       -0.70570000       1.89430000      -0.87170000
H       -0.68400000       1.92780000       0.90450000
H       -0.99870000      -0.37080000       0.07830000
H        0.08200000      -0.36610000      -2.13430000
H        1.79830000      -1.32890000      -3.43350000
H        3.41080000      -0.85420000      -2.86410000
H        2.81230000      -2.47340000      -2.53580000
H        2.89880000      -2.13190000       0.17260000
H        3.82340000      -0.74400000      -0.34200000
H        2.79610000      -0.59040000       2.02950000
H        2.49400000       0.79510000       0.98630000
H        0.57570000      -1.55100000       1.34310000
H        0.74070000      -0.11960000       3.18480000
