19
Properties=species:S:1:pos:R:3 gdb_105065=T pbc="F F F"
O        0.03970000       1.34860000       0.42990000
C       -0.09540000      -0.03350000       0.66510000
C       -1.39790000      -0.58800000       0.09800000
C       -2.58310000       0.27350000       0.05240000
O       -1.78600000       0.04510000      -1.13060000
C       -1.53980000      -2.08820000       0.13470000
O       -1.51780000      -2.60830000       1.44140000
C       -2.45420000      -2.78220000      -0.82440000
C       -0.95220000      -2.92010000      -0.97770000
H       -0.21450000       1.48060000      -0.49350000
H        0.74330000      -0.60300000       0.22850000
H       -0.07250000      -0.18500000       1.74940000
H       -3.57030000      -0.18150000       0.03040000
H       -2.52090000       1.28310000       0.44890000
H       -0.59880000      -2.71800000       1.70780000
H       -2.99840000      -3.63230000      -0.43080000
H       -2.97770000      -2.17800000      -1.55540000
H       -0.47980000      -2.40640000      -1.80770000
H       -0.50300000      -3.86780000      -0.70130000
