21
Properties=species:S:1:pos:R:3 gdb_94922=T pbc="F F F"
C       -0.26840000       1.46440000      -0.16450000
C       -0.09150000      -0.05110000      -0.04220000
C        0.44270000      -0.73760000      -1.32720000
C        1.26950000      -1.96080000      -0.85810000
C        1.63870000      -1.68810000       0.59770000
C        2.36230000      -0.39510000       0.97820000
C        3.12480000       0.46340000       0.04310000
O        4.10440000       1.08900000       0.37850000
C        0.83410000      -0.52210000       1.07690000
H        0.68200000       1.96070000      -0.38760000
H       -0.97130000       1.71280000      -0.96680000
H       -0.65740000       1.89520000       0.76370000
H       -1.07350000      -0.48530000       0.19210000
H       -0.37330000      -1.03060000      -1.99360000
H        1.06270000      -0.03940000      -1.89750000
H        0.65550000      -2.86810000      -0.88370000
H        2.13620000      -2.15150000      -1.49930000
H        1.84440000      -2.54070000       1.23590000
H        2.85440000      -0.42780000       1.94610000
H        2.77130000       0.50470000      -1.00700000
H        0.44860000      -0.47820000       2.09030000
