19
Properties=species:S:1:pos:R:3 gdb_79185=T pbc="F F F"
C       -0.27900000       1.53340000      -0.01140000
C       -0.01800000       0.02480000      -0.02280000
C        0.83620000      -0.44930000      -1.19580000
C        2.31680000      -0.12560000      -1.16670000
O        2.73820000       0.25810000       0.15000000
C        2.10180000      -0.96560000       0.66980000
C        1.85170000      -1.48820000      -0.75440000
C        0.76180000      -0.50740000       1.24620000
O        0.93820000       0.42940000       2.28540000
H        0.65740000       2.09800000      -0.04630000
H       -0.87470000       1.82400000      -0.88300000
H       -0.82200000       1.82940000       0.88990000
H       -0.98380000      -0.49050000      -0.07420000
H        0.39400000      -0.55240000      -2.18160000
H        2.90220000       0.22900000      -2.00660000
H        2.76550000      -1.50060000       1.35000000
H        2.01870000      -2.47580000      -1.15910000
H        0.22530000      -1.35290000       1.69020000
H        1.57320000       1.07660000       1.95110000
