19
Properties=species:S:1:pos:R:3 gdb_108390=T pbc="F F F"
C       -0.21710000       1.34070000       0.11130000
O        0.15960000      -0.01550000      -0.07830000
C        0.78330000      -0.56640000       1.01420000
C        2.24760000      -0.33080000       1.41100000
C        2.33780000      -1.84690000       1.79840000
C        0.87630000      -2.02930000       1.37250000
C       -0.02850000      -1.10130000       2.19050000
C        0.20940000      -0.76490000       3.56320000
C        0.42310000      -0.47130000       4.71130000
H        0.65560000       1.97950000       0.30380000
H       -0.70080000       1.66780000      -0.81130000
H       -0.92020000       1.44590000       0.94870000
H        2.86400000      -0.09150000       0.54190000
H        2.43180000       0.39630000       2.20570000
H        3.03490000      -2.39810000       1.16470000
H        2.55310000      -2.06290000       2.84750000
H        0.45110000      -2.89170000       0.87390000
H       -1.07430000      -1.21830000       1.91670000
H        0.60220000      -0.21510000       5.72580000
