16
Properties=species:S:1:pos:R:3 gdb_124802=T pbc="F F F"
C        0.11390000       1.48300000       0.24740000
C       -0.19190000      -0.00330000       0.00780000
O       -1.58020000      -0.22090000      -0.16610000
C        0.59140000      -0.54150000      -1.15820000
N        0.00250000      -0.87890000      -2.30490000
N        0.99980000      -1.26440000      -3.08510000
N        2.22010000      -1.21830000      -2.54290000
C        1.97610000      -0.75700000      -1.32340000
O        2.93230000      -0.53750000      -0.40240000
H        1.17900000       1.63310000       0.45110000
H       -0.16130000       2.07400000      -0.63190000
H       -0.46410000       1.84090000       1.10340000
H        0.10330000      -0.56160000       0.90690000
H       -1.74960000      -0.26390000      -1.11470000
H        0.84840000      -1.60500000      -4.01920000
H        3.78170000      -0.77800000      -0.79280000
