14
Properties=species:S:1:pos:R:3 gdb_20919=T pbc="F F F"
C        0.06440000       1.50970000       0.04400000
C       -0.02310000      -0.01010000      -0.07850000
N        0.71310000      -0.51240000      -1.23060000
N        0.12040000      -1.05470000      -2.27610000
N        1.07800000      -1.36700000      -3.12310000
C        2.22570000      -0.98280000      -2.52420000
O        3.43410000      -1.13210000      -3.06810000
N        2.04410000      -0.43810000      -1.32920000
H        1.10430000       1.82770000       0.14770000
H       -0.36500000       1.99620000      -0.83600000
H       -0.49040000       1.83810000       0.92730000
H        0.38400000      -0.49900000       0.81100000
H       -1.05090000      -0.34730000      -0.22360000
H        3.30750000      -1.55140000      -3.92870000
