21
Properties=species:S:1:pos:R:3 gdb_74541=T pbc="F F F"
C        0.13240000       1.50590000       0.02450000
C        0.05080000       0.01890000       0.01770000
C        0.05000000      -0.87540000      -0.97420000
C       -0.02270000      -2.24480000      -0.26810000
C       -1.02680000      -3.22850000      -0.93890000
C       -2.15910000      -2.34250000      -0.24870000
C       -1.06260000      -1.98620000       0.80970000
C       -0.02420000      -0.87810000       1.25940000
C        1.06250000      -2.00160000       0.86550000
H        1.01680000       1.86020000       0.57020000
H        0.18020000       1.90650000      -0.99230000
H       -0.73770000       1.95160000       0.52390000
H        0.11230000      -0.72410000      -2.04440000
H       -1.03070000      -3.29430000      -2.03120000
H       -1.00120000      -4.23590000      -0.51520000
H       -2.44240000      -1.50860000      -0.89330000
H       -3.05500000      -2.85370000       0.11190000
H       -1.05430000      -2.79340000       1.55140000
H       -0.02710000      -0.41100000       2.24680000
H        1.14530000      -2.80810000       1.60070000
H        2.04960000      -1.63580000       0.56830000
