24
Properties=species:S:1:pos:R:3 gdb_60132=T pbc="F F F"
C        1.25810000      -0.15510000      -0.54190000
C        1.20300000      -1.05370000       0.69120000
O        1.99200000      -0.53210000       1.75850000
C       -0.21040000      -1.19360000       1.26550000
N       -1.08180000      -1.84990000       0.29730000
C       -2.41580000      -2.31320000       0.69000000
C       -2.95170000      -2.16270000       2.09690000
C       -2.25960000      -1.17050000      -0.26170000
C       -2.64550000       0.25340000       0.07390000
H        2.28230000      -0.08340000      -0.92710000
H        0.62920000      -0.56000000      -1.33960000
H        0.91640000       0.85620000      -0.29530000
H        1.54880000      -2.06160000       0.41280000
H        2.88120000      -0.38340000       1.42320000
H       -0.14130000      -1.80960000       2.16870000
H       -0.55020000      -0.19710000       1.58230000
H       -2.66250000      -3.28210000       0.25300000
H       -2.74230000      -1.18580000       2.53670000
H       -4.03720000      -2.30990000       2.10370000
H       -2.51520000      -2.92140000       2.75630000
H       -2.39650000      -1.39630000      -1.32000000
H       -2.63910000       0.46900000       1.14380000
H       -1.96970000       0.96530000      -0.41350000
H       -3.65640000       0.45440000      -0.29660000
