17
Properties=species:S:1:pos:R:3 gdb_77813=T pbc="F F F"
C       -0.08620000       1.47970000      -0.07100000
C        0.05550000      -0.01300000       0.00470000
O       -1.10320000      -0.68520000      -0.43690000
C       -1.25920000      -1.92210000       0.24060000
C       -0.23150000      -1.95200000       1.37630000
O       -0.20580000      -2.74960000       2.27960000
C        0.67690000      -0.78770000       1.16550000
C        1.34640000      -0.71880000      -0.22540000
O        1.36410000      -1.81750000      -1.07680000
H        0.83960000       1.97570000       0.23240000
H       -0.31820000       1.78090000      -1.09740000
H       -0.89690000       1.82240000       0.57850000
H       -2.27590000      -1.99690000       0.64170000
H       -1.07900000      -2.76750000      -0.43460000
H        1.17490000      -0.35010000       2.02140000
H        2.24080000      -0.09560000      -0.24480000
H        2.03570000      -2.43410000      -0.76410000
