20
Properties=species:S:1:pos:R:3 gdb_9690=T pbc="F F F"
C       -0.28040000       1.10210000      -0.64960000
O       -0.31290000       0.18460000       0.42430000
C       -1.36330000      -0.72390000       0.32710000
C       -1.20780000      -1.96610000      -0.52620000
C       -1.20000000      -2.05600000       0.99210000
C        0.11150000      -2.37650000       1.68100000
C       -2.41180000      -2.64490000       1.70430000
O       -3.65510000      -2.37580000       1.07420000
H        0.56730000       1.77000000      -0.47840000
H       -0.15010000       0.59290000      -1.61560000
H       -1.20220000       1.70140000      -0.69750000
H       -2.35690000      -0.27550000       0.35430000
H       -2.07090000      -2.31130000      -1.08700000
H       -0.25630000      -2.10950000      -1.02760000
H        0.94170000      -1.85120000       1.20660000
H        0.08550000      -2.06790000       2.73280000
H        0.31620000      -3.45300000       1.65340000
H       -2.26390000      -3.72860000       1.83750000
H       -2.48550000      -2.20540000       2.70640000
H       -3.72780000      -2.95150000       0.30730000
