19
Properties=species:S:1:pos:R:3 gdb_119492=T pbc="F F F"
C        0.01970000       1.55170000      -0.14640000
C       -0.03260000       0.02360000      -0.08960000
C       -1.45350000      -0.51390000       0.14730000
C       -1.49940000      -2.00570000       0.20920000
O       -1.36760000      -2.77650000      -0.98770000
C       -2.49670000      -3.01780000      -0.14610000
C       -2.02200000      -3.92520000       1.05890000
O       -0.63340000      -4.19980000       0.89040000
C       -1.01330000      -2.92940000       1.41450000
H        1.04010000       1.90720000      -0.31810000
H       -0.60860000       1.93950000      -0.95600000
H       -0.33550000       1.99750000       0.78960000
H        0.35120000      -0.40090000      -1.02420000
H        0.62960000      -0.34030000       0.70630000
H       -1.85340000      -0.10580000       1.08580000
H       -2.11980000      -0.17590000      -0.65520000
H       -3.48950000      -2.93790000      -0.57240000
H       -2.61740000      -4.59730000       1.66380000
H       -0.61300000      -2.62090000       2.37270000
