21
Properties=species:S:1:pos:R:3 gdb_83815=T pbc="F F F"
C       -0.13400000       1.54980000       0.07700000
C        0.03560000       0.04900000       0.02520000
C        0.71080000      -0.67540000      -1.13980000
C        1.36940000       0.08680000      -2.28830000
C        2.90360000       0.16190000      -2.15810000
C        3.34810000       0.47340000      -0.74810000
C        2.64220000       0.11150000       0.32340000
C        1.36910000      -0.65140000       0.20870000
O        1.35610000      -1.87930000       0.90150000
H        0.78210000       2.07270000      -0.20960000
H       -0.93660000       1.88420000      -0.59090000
H       -0.39250000       1.87640000       1.09050000
H       -0.79060000      -0.51360000       0.45380000
H        0.26340000      -1.62960000      -1.39750000
H        1.10320000      -0.38450000      -3.23980000
H        0.97390000       1.10740000      -2.33720000
H        3.35590000      -0.79220000      -2.46710000
H        3.29800000       0.91330000      -2.85160000
H        4.29480000       0.99380000      -0.62370000
H        2.99960000       0.33670000       1.32680000
H        1.29590000      -1.68420000       1.84350000
