21
Properties=species:S:1:pos:R:3 gdb_71990=T pbc="F F F"
C       -0.08720000       1.44900000       0.03070000
C        0.03930000      -0.04420000      -0.02420000
C        0.95560000      -0.88080000      -0.91420000
C        0.11120000      -2.10220000      -0.46270000
C        0.43380000      -2.25920000       1.05190000
C       -0.29520000      -0.93010000       1.20790000
O       -0.81290000      -0.38090000       2.36680000
C       -1.06170000      -1.10090000      -0.07580000
C       -2.51840000      -1.04720000      -0.39650000
H        0.85580000       1.91720000       0.34130000
H       -0.35150000       1.86820000      -0.94690000
H       -0.85810000       1.75080000       0.74660000
H        0.80550000      -0.64570000      -1.97330000
H        2.03150000      -0.90380000      -0.69720000
H        0.00850000      -2.98120000      -1.09560000
H       -0.13680000      -3.07340000       1.50830000
H        1.49000000      -2.33770000       1.33940000
H       -0.11520000       0.11550000       2.81000000
H       -2.99390000      -0.21070000       0.12620000
H       -2.69620000      -0.91560000      -1.47030000
H       -3.03320000      -1.96360000      -0.08460000
