19
Properties=species:S:1:pos:R:3 gdb_79920=T pbc="F F F"
C       -0.04430000       1.40250000       0.10110000
C        0.01190000      -0.08530000       0.03840000
C       -0.02970000      -0.92940000      -1.00870000
C        0.02710000      -2.30640000      -0.37720000
C       -1.01460000      -2.08830000       0.80930000
O       -1.29470000      -3.14390000       1.66590000
C        0.09450000      -1.02580000       1.23520000
C        1.14900000      -2.04140000       0.69420000
O        1.41190000      -3.08800000       1.62100000
H        0.84910000       1.82090000       0.58180000
H       -0.12500000       1.83710000      -0.89970000
H       -0.90400000       1.74630000       0.69020000
H       -0.11430000      -0.70240000      -2.06300000
H        0.01740000      -3.19690000      -1.00690000
H       -1.96840000      -1.65460000       0.49960000
H       -0.44210000      -3.49630000       1.96040000
H        0.15590000      -0.61520000       2.24330000
H        2.08530000      -1.61480000       0.31420000
H        1.92840000      -3.76480000       1.17030000
