17
Properties=species:S:1:pos:R:3 gdb_76944=T pbc="F F F"
C       -0.09800000       1.57410000       0.28110000
C        0.02720000       0.08180000       0.05650000
C        1.31400000      -0.59050000      -0.40460000
C        2.58030000       0.16150000      -0.59760000
O        3.37940000      -0.11850000      -1.45830000
C        0.78260000      -0.76260000       1.04530000
O        1.45230000      -0.13200000       2.07660000
C        0.28590000      -2.11150000       1.39810000
O        0.49970000      -2.59210000       2.48810000
H        0.73430000       1.96970000       0.86450000
H       -0.14540000       2.10750000      -0.67290000
H       -1.01710000       1.78830000       0.83460000
H       -0.86190000      -0.38450000      -0.36180000
H        1.21510000      -1.43730000      -1.07650000
H        2.75810000       0.99800000       0.10500000
H        1.51310000      -0.80120000       2.77820000
H       -0.27690000      -2.65110000       0.61080000
