19
Properties=species:S:1:pos:R:3 gdb_6288=T pbc="F F F"
C       -0.04020000       1.56260000       0.21170000
N       -0.03820000       0.11640000       0.02740000
C        0.76020000      -0.54380000       1.05230000
C       -1.38000000      -0.44030000      -0.08460000
C       -1.92760000      -0.25150000      -1.52640000
N       -1.07730000      -0.82110000      -2.57480000
C       -3.28220000      -0.81010000      -1.61120000
N       -4.34260000      -1.26760000      -1.63980000
H        0.98750000       1.93690000       0.19120000
H       -0.58710000       2.05470000      -0.59720000
H       -0.49950000       1.87020000       1.16940000
H        0.36220000      -0.40030000       2.07360000
H        0.80900000      -1.61820000       0.85340000
H        1.78020000      -0.14780000       1.03170000
H       -1.33060000      -1.51560000       0.11450000
H       -2.08560000      -0.00550000       0.64630000
H       -2.01770000       0.82450000      -1.72550000
H       -0.12180000      -0.56440000      -2.33180000
H       -1.12050000      -1.83630000      -2.52880000
