18
Properties=species:S:1:pos:R:3 gdb_45731=T pbc="F F F"
N       -0.02700000       1.28780000       0.01270000
C        0.03520000       0.01830000       0.00460000
N        1.13380000      -0.84030000      -0.00670000
C        0.66650000      -2.15010000      -0.01220000
N       -0.60150000      -2.28660000      -0.00600000
C       -1.15720000      -0.92620000       0.00540000
C       -2.25740000      -0.72690000       1.09420000
C       -3.34310000      -0.97850000       0.01720000
C       -2.26940000      -0.71360000      -1.06870000
H        0.89680000       1.72280000       0.01030000
H        2.09920000      -0.55740000      -0.01040000
H        1.37610000      -2.97140000      -0.02110000
H       -2.20580000      -1.40850000       1.94490000
H       -2.24470000       0.30910000       1.44130000
H       -3.67810000      -2.01790000       0.01260000
H       -4.21700000      -0.32400000       0.02600000
H       -2.26050000       0.32650000      -1.40320000
H       -2.22720000      -1.38470000      -1.92820000
