13
Properties=species:S:1:pos:R:3 gdb_24392=T pbc="F F F"
C       -0.01720000       1.51150000      -0.05040000
N        1.36470000       1.98900000       0.12320000
C        2.34300000       1.21670000       0.26750000
O        2.36280000      -0.18240000       0.29710000
C        1.11540000      -0.66000000       0.14130000
C       -0.03420000       0.01760000      -0.02380000
N       -1.06320000      -0.91310000      -0.14190000
C       -0.47060000      -2.05630000      -0.04140000
O        0.89060000      -1.98730000       0.13720000
H       -0.63160000       1.95590000       0.74330000
H       -0.40200000       1.92240000      -0.99270000
H        3.35810000       1.57840000       0.39470000
H       -0.89190000      -3.04710000      -0.07790000
