20
Properties=species:S:1:pos:R:3 gdb_58364=T pbc="F F F"
C        0.56430000      -1.00080000      -1.04800000
N       -0.10610000       0.02280000      -0.26280000
C        0.26490000       1.36940000      -0.67980000
C       -1.53920000      -0.18330000      -0.07160000
C       -1.93880000       0.57380000       1.19810000
O       -2.84860000       1.35580000       1.27770000
C       -2.46020000       0.15070000      -1.23440000
C       -2.72170000      -0.81570000      -2.31020000
O       -3.68300000      -0.58750000      -1.28200000
H        1.64810000      -0.86940000      -0.95990000
H        0.31310000      -1.99240000      -0.65960000
H        0.31260000      -0.97590000      -2.12290000
H        0.02580000       1.58800000      -1.73550000
H       -0.24250000       2.11310000      -0.05800000
H        1.34390000       1.50300000      -0.55000000
H       -1.68620000      -1.24750000       0.16320000
H       -1.27190000       0.35030000       2.06000000
H       -2.58010000       1.21050000      -1.45240000
H       -2.99880000      -0.45680000      -3.30040000
H       -2.24150000      -1.79330000      -2.29140000
