22
Properties=species:S:1:pos:R:3 gdb_120558=T pbc="F F F"
C        0.03370000       1.33560000      -0.28170000
O       -0.10190000       0.10210000       0.38660000
C       -1.35580000      -0.49890000       0.19140000
C       -1.52870000      -1.28580000      -1.13920000
N       -1.22750000      -2.53840000      -0.41760000
C       -2.00990000      -3.71660000      -0.73840000
C       -1.40610000      -4.98890000      -0.14660000
O       -1.33960000      -4.96190000       1.27260000
C       -1.42430000      -1.86940000       0.88930000
H        1.02650000       1.72520000      -0.04520000
H       -0.05160000       1.22890000      -1.37360000
H       -0.72380000       2.06260000       0.05240000
H       -2.16110000       0.21000000       0.42680000
H       -2.56010000      -1.23180000      -1.52290000
H       -0.83240000      -1.04860000      -1.95180000
H       -3.05940000      -3.61920000      -0.39680000
H       -2.03110000      -3.82280000      -1.83080000
H       -2.03760000      -5.84560000      -0.40720000
H       -0.41200000      -5.15550000      -0.58550000
H       -0.61280000      -4.38000000       1.51390000
H       -0.63690000      -2.04240000       1.63090000
H       -2.40370000      -2.07410000       1.34570000
