17
Properties=species:S:1:pos:R:3 gdb_53842=T pbc="F F F"
N       -0.15250000       1.28770000      -0.09120000
C        0.01870000      -0.04230000       0.06370000
O        1.08050000      -0.62100000       0.20020000
C       -1.32570000      -0.80830000       0.04780000
O       -2.36900000      -0.21680000      -0.09940000
C       -1.20110000      -2.30970000       0.19780000
N       -2.48530000      -2.94070000       0.39490000
C       -3.26070000      -3.23160000      -0.80470000
C       -2.60110000      -4.32840000      -0.04410000
H        0.64310000       1.90280000      -0.09400000
H       -1.08830000       1.64680000      -0.19220000
H       -0.64860000      -2.66990000      -0.69320000
H       -0.53880000      -2.51690000       1.04600000
H       -4.32980000      -3.06250000      -0.72470000
H       -2.82970000      -2.96650000      -1.76900000
H       -1.72890000      -4.79720000      -0.49750000
H       -3.17980000      -4.97780000       0.60610000
