19
Properties=species:S:1:pos:R:3 gdb_14779=T pbc="F F F"
C        0.02270000       1.34050000       0.00890000
O       -0.00350000      -0.06640000       0.00170000
C       -1.31050000      -0.59150000       0.01120000
C       -1.21220000      -2.11170000       0.00220000
C       -2.57980000      -2.77590000       0.01180000
O       -2.37630000      -4.19050000       0.00260000
C       -3.48700000      -4.95000000       0.00950000
N       -3.39350000      -6.20880000       0.00240000
H        1.07100000       1.64810000       0.00070000
H       -0.47910000       1.76410000      -0.87590000
H       -0.46240000       1.75470000       0.90740000
H       -1.85890000      -0.24280000       0.90480000
H       -1.87560000      -0.23340000      -0.86820000
H       -0.65880000      -2.43380000      -0.88550000
H       -0.64200000      -2.44310000       0.87570000
H       -3.14870000      -2.48700000       0.90700000
H       -3.16550000      -2.47790000      -0.86960000
H       -4.41940000      -4.36690000       0.02160000
H       -4.32280000      -6.62420000       0.00950000
