13
Properties=species:S:1:pos:R:3 gdb_15314=T pbc="F F F"
O        0.24880000       0.09310000      -0.20910000
C        0.38920000       1.26160000      -0.38010000
O        0.96770000       2.06220000       0.55990000
C        0.98500000       3.43650000       0.29460000
C        2.12100000       4.19170000       0.88310000
C        2.05640000       4.01180000      -0.63080000
C        2.97790000       3.12960000      -1.28560000
N        3.70780000       2.41690000      -1.83050000
H        0.07770000       1.81840000      -1.28220000
H        0.00340000       3.90000000       0.25160000
H        1.94510000       5.18580000       1.27500000
H        2.86350000       3.60330000       1.40820000
H        1.76680000       4.87460000      -1.22120000
