17
Properties=species:S:1:pos:R:3 gdb_32340=T pbc="F F F"
C        0.06080000       1.56400000       0.13430000
C        0.00560000       0.04480000      -0.09660000
C       -1.39280000      -0.51720000      -0.03870000
C       -2.02720000      -0.98190000      -1.13780000
O       -3.27590000      -1.47570000      -1.13790000
C       -4.05750000      -1.55690000       0.03060000
O       -5.16560000      -2.00950000      -0.07010000
C       -3.39640000      -1.07290000       1.22620000
C       -2.13580000      -0.58000000       1.18910000
H        1.09370000       1.92380000       0.10690000
H       -0.50820000       2.09620000      -0.63410000
H       -0.36180000       1.83560000       1.10720000
H        0.44830000      -0.19310000      -1.07010000
H        0.62950000      -0.45770000       0.65390000
H       -1.58860000      -1.00400000      -2.12990000
H       -3.97270000      -1.13500000       2.14060000
H       -1.66670000      -0.22820000       2.10430000
