18
Properties=species:S:1:pos:R:3 gdb_38968=T pbc="F F F"
C       -0.21060000       1.07490000      -0.00010000
O        0.87300000       1.83150000       0.50590000
C        1.99560000       0.97470000       0.66100000
C        2.39820000       0.68750000       2.12990000
C        1.92640000      -0.72660000       2.42310000
N        0.47630000      -0.89530000       2.22150000
C        1.41660000      -1.35810000       1.17750000
C        1.54020000      -0.37460000       0.02320000
O        0.33290000      -0.05740000      -0.64820000
H       -0.87580000       0.77090000       0.81750000
H       -0.74810000       1.67520000      -0.74310000
H        2.82840000       1.43000000       0.11520000
H        3.48660000       0.74640000       2.23890000
H        1.95050000       1.42720000       2.79900000
H        2.41690000      -1.31160000       3.19480000
H        0.14510000      -1.69850000       2.74940000
H        1.50700000      -2.42240000       0.98740000
H        2.24320000      -0.75320000      -0.72490000
