23
Properties=species:S:1:pos:R:3 gdb_59658=T pbc="F F F"
C        0.94680000       1.43960000       0.29340000
C        0.30700000       0.05390000       0.12540000
C       -1.22630000       0.13870000       0.12360000
C        0.80050000      -0.59610000      -1.15850000
O        2.24500000      -0.67100000      -1.25910000
C        2.16810000      -1.97030000      -1.87670000
C        0.68870000      -2.12120000      -1.43220000
C        0.51170000      -3.02680000      -0.22070000
O       -0.26480000      -2.39460000      -2.43640000
H        2.03700000       1.36770000       0.28890000
H        0.64870000       2.10880000      -0.52240000
H        0.63220000       1.90050000       1.23530000
H        0.62710000      -0.56920000       0.97000000
H       -1.57780000       0.79580000      -0.68020000
H       -1.69290000      -0.83970000      -0.02670000
H       -1.59260000       0.54680000       1.07090000
H        0.38930000      -0.05490000      -2.02620000
H        2.27050000      -1.91840000      -2.96900000
H        2.90640000      -2.66730000      -1.46360000
H        1.24480000      -2.79590000       0.55670000
H       -0.49170000      -2.93320000       0.20390000
H        0.66380000      -4.07410000      -0.51240000
H       -0.37130000      -3.34910000      -2.50640000
