18
Properties=species:S:1:pos:R:3 gdb_87493=T pbc="F F F"
C       -0.00010000       1.53840000      -0.06940000
C        0.00960000       0.03490000       0.04740000
N        1.34250000      -0.64010000      -0.10810000
C        0.63320000      -0.66800000       1.16720000
C        1.14820000      -0.28560000       2.56930000
O       -0.11260000      -0.82660000       3.11950000
C        0.28540000      -1.82730000       2.10820000
C        1.74470000      -1.72120000       2.69230000
O        2.87370000      -2.10650000       1.98300000
H        0.88540000       1.96690000       0.40700000
H       -0.00340000       1.84720000      -1.11970000
H       -0.89030000       1.95500000       0.41300000
H       -0.82780000      -0.47170000      -0.42990000
H        1.21930000      -1.52550000      -0.59620000
H        1.50760000       0.66740000       2.95630000
H       -0.36460000      -2.68990000       1.95830000
H        1.81570000      -2.08440000       3.71850000
H        2.90120000      -1.59930000       1.16070000
