18
Properties=species:S:1:pos:R:3 gdb_122060=T pbc="F F F"
O       -1.31290000       0.77220000       1.02470000
C       -0.27660000       0.32780000       0.16970000
C       -0.72710000      -0.77670000      -0.79410000
N       -1.82210000      -0.41500000      -1.69660000
C       -3.17480000      -0.50860000      -1.20550000
C       -3.87210000       0.82600000      -0.94880000
O       -3.28170000       1.87670000      -0.87430000
C       -4.06890000      -1.34960000      -2.13720000
O       -5.24590000      -1.51550000      -1.95770000
H       -1.84150000       1.40710000       0.52630000
H        0.14890000       1.16450000      -0.40730000
H        0.52700000      -0.06230000       0.80630000
H        0.13650000      -1.08620000      -1.39830000
H       -1.04120000      -1.65530000      -0.21930000
H       -1.66180000       0.50160000      -2.10150000
H       -3.20820000      -1.02320000      -0.23280000
H       -4.97240000       0.76010000      -0.85560000
H       -3.51140000      -1.78390000      -2.99440000
