12
Properties=species:S:1:pos:R:3 gdb_21544=T pbc="F F F"
N        0.03570000       1.41240000       0.16770000
C        0.02240000       0.03150000       0.04120000
C       -1.05780000      -0.81740000       0.00540000
O       -0.61360000      -2.10950000      -0.04030000
N        0.75860000      -2.11230000      -0.04660000
C        1.13310000      -0.85650000       0.00650000
C       -2.43470000      -0.55710000       0.00990000
C       -3.60960000      -0.28670000       0.00810000
H        0.79600000       1.86830000      -0.31700000
H       -0.84960000       1.84600000      -0.05830000
H        2.18690000      -0.61510000       0.01880000
H       -4.64790000      -0.06310000       0.01420000
