20
Properties=species:S:1:pos:R:3 gdb_69507=T pbc="F F F"
C       -0.03600000       1.52390000       0.11700000
C       -0.03400000       0.02660000       0.01230000
C        1.17660000      -0.79200000      -0.41200000
C        0.62760000      -0.99850000       0.96550000
O        1.41480000      -0.76770000       2.07580000
C       -0.62220000      -1.85050000       0.93130000
C       -0.70960000      -3.34580000       0.98970000
N       -1.71980000      -0.96590000       1.42780000
C       -1.25700000      -0.86040000       0.01220000
H        0.92130000       1.88650000       0.50620000
H       -0.20070000       2.00370000      -0.85500000
H       -0.82540000       1.85800000       0.79820000
H        1.10130000      -1.56460000      -1.17390000
H        2.10840000      -0.23460000      -0.43490000
H        0.82350000      -0.47410000       2.78010000
H       -0.53710000      -3.71220000       2.00820000
H       -1.69420000      -3.70210000       0.66810000
H        0.04430000      -3.80440000       0.34120000
H       -2.57590000      -1.52450000       1.42290000
H       -1.93730000      -1.07100000      -0.80640000
