18
Properties=species:S:1:pos:R:3 gdb_71330=T pbc="F F F"
C        0.25340000       1.46770000      -0.01450000
C        0.19360000      -0.03130000      -0.02860000
C        0.83510000      -0.97710000      -1.05490000
C       -0.00320000      -1.86810000      -0.14620000
C        0.32760000      -1.06620000       1.14700000
C       -1.16710000      -0.97900000       1.41870000
C       -1.79680000       0.14230000       2.19970000
O       -1.22390000       0.81310000       3.02260000
N       -1.16150000      -0.83210000      -0.10980000
H        1.29610000       1.79530000       0.06030000
H       -0.16140000       1.86820000      -0.94540000
H       -0.29260000       1.89890000       0.82670000
H        0.48820000      -0.87320000      -2.08690000
H        1.92020000      -1.09640000      -0.99990000
H       -0.23740000      -2.93150000      -0.21760000
H        1.16620000      -1.20100000       1.83540000
H       -1.67040000      -1.91360000       1.71200000
H       -2.87590000       0.30220000       1.97100000
