16
Properties=species:S:1:pos:R:3 gdb_30495=T pbc="F F F"
C       -0.05010000       1.44550000       0.00740000
N        0.02370000      -0.00340000       0.00320000
C       -1.04740000      -0.67900000       0.00930000
O       -2.29570000      -0.00510000       0.02040000
C       -3.45010000      -0.68670000       0.02720000
C       -3.52710000      -2.02760000       0.02430000
C       -2.29240000      -2.77600000       0.01320000
O       -2.31300000      -4.13070000       0.00990000
C       -1.10860000      -2.11910000       0.00610000
H        0.96380000       1.85320000      -0.00040000
H       -0.58390000       1.83910000      -0.86930000
H       -0.56840000       1.83460000       0.89540000
H       -4.30970000      -0.02660000       0.03520000
H       -4.49340000      -2.51710000       0.03010000
H       -3.22420000      -4.44020000       0.01580000
H       -0.16670000      -2.64940000      -0.00220000
