17
Properties=species:S:1:pos:R:3 gdb_68644=T pbc="F F F"
C        0.05220000       1.52080000      -0.05340000
C       -0.02880000       0.01860000      -0.02540000
O        0.67820000      -0.62060000      -1.10400000
C        0.35860000      -1.97970000      -0.76370000
C        1.01040000      -2.09210000       0.64070000
C        0.65770000      -0.69250000       1.18260000
O        0.87030000      -0.23170000       2.27050000
C       -1.15560000      -1.90180000      -0.55670000
C       -1.39250000      -0.67650000      -0.08900000
H        1.09400000       1.84150000      -0.13470000
H       -0.50920000       1.93020000      -0.89700000
H       -0.35390000       1.92470000       0.87800000
H        0.73190000      -2.66190000      -1.52580000
H        0.62750000      -2.89190000       1.27690000
H        2.09790000      -2.18650000       0.56870000
H       -1.84740000      -2.72340000      -0.68310000
H       -2.31730000      -0.25080000       0.27490000
