21
Properties=species:S:1:pos:R:3 gdb_101879=T pbc="F F F"
C       -0.02290000       1.37560000       0.02650000
O       -0.13240000      -0.02120000      -0.13910000
C        0.66160000      -0.56780000      -1.18900000
C        2.13330000      -0.69390000      -0.79370000
C        0.04030000      -1.92440000      -1.51210000
N       -1.34340000      -1.74830000      -1.93470000
C       -2.04440000      -3.01150000      -2.10710000
C       -3.44380000      -2.79340000      -2.48640000
N       -4.55200000      -2.62670000      -2.76550000
H        0.97400000       1.68100000       0.37430000
H       -0.24410000       1.91220000      -0.90850000
H       -0.75610000       1.66680000       0.78250000
H        0.56650000       0.07430000      -2.07930000
H        2.71250000      -1.13800000      -1.60950000
H        2.57210000       0.28250000      -0.57220000
H        2.23850000      -1.32590000       0.09360000
H        0.60650000      -2.39520000      -2.32530000
H        0.13920000      -2.57700000      -0.62410000
H       -1.81210000      -1.18160000      -1.23450000
H       -1.55910000      -3.58370000      -2.90850000
H       -2.03350000      -3.66260000      -1.21260000
