20
Properties=species:S:1:pos:R:3 gdb_79871=T pbc="F F F"
C        0.04430000       1.50740000      -0.18220000
N        0.02760000       0.05620000       0.00490000
C       -1.05190000      -0.50630000       0.88400000
C       -0.15700000      -1.75910000       1.12310000
C       -0.39930000      -2.22520000       2.54640000
O       -0.51630000      -0.96340000       3.23620000
C       -0.34880000      -0.02820000       2.19320000
C        0.77260000      -0.49720000       1.19690000
C        2.26480000      -0.44490000       1.34170000
H        1.00710000       1.79530000      -0.61730000
H       -0.73360000       1.77360000      -0.90560000
H       -0.11410000       2.11540000       0.72200000
H       -2.10810000      -0.47600000       0.61150000
H       -0.01580000      -2.47680000       0.31720000
H       -1.32340000      -2.80380000       2.66700000
H        0.43270000      -2.80480000       2.96540000
H       -0.42130000       0.98470000       2.58080000
H        2.57410000      -0.92820000       2.27420000
H        2.75630000      -0.95530000       0.50710000
H        2.62420000       0.58940000       1.36880000
