16
Properties=species:S:1:pos:R:3 gdb_49689=T pbc="F F F"
O       -0.95260000       1.22050000       0.55040000
C        0.19120000       0.90620000       0.32300000
C        1.35820000       1.83270000       0.26650000
C        1.33880000       3.26910000      -0.21050000
C        0.03760000       4.00100000       0.14100000
C        0.28380000       3.69410000       1.65150000
C        1.59260000       2.97290000       1.26970000
C        2.81060000       3.02230000       2.01060000
N        3.79330000       3.07500000       2.62060000
H        0.45860000      -0.15650000       0.13250000
H        2.28730000       1.32760000       0.01670000
H        2.06510000       3.58060000      -0.95130000
H        0.10700000       5.06780000      -0.07870000
H       -0.87430000       3.59480000      -0.29470000
H        0.48730000       4.59320000       2.23460000
H       -0.46280000       3.08490000       2.15910000
