17
Properties=species:S:1:pos:R:3 gdb_45697=T pbc="F F F"
O       -0.02280000      -0.11190000      -0.15130000
C       -0.01900000       1.09940000      -0.04070000
N       -1.20300000       1.83600000      -0.01260000
C       -1.25560000       3.18600000       0.36300000
C       -0.15280000       3.91200000       0.22730000
C        0.50990000       5.12070000       0.84680000
C        1.81520000       4.24980000       0.90060000
C        1.16320000       3.27520000      -0.13890000
N        1.13450000       1.84660000       0.09650000
H       -2.02910000       1.26250000       0.02070000
H       -2.18990000       3.53230000       0.79050000
H        0.61460000       5.96540000       0.15650000
H        0.11110000       5.49320000       1.79290000
H        2.75210000       4.73170000       0.61170000
H        1.92880000       3.75760000       1.86840000
H        1.50220000       3.51680000      -1.15930000
H        1.96840000       1.29770000      -0.04960000
