16
Properties=species:S:1:pos:R:3 gdb_133069=T pbc="F F F"
C        0.21700000       1.52880000       0.14880000
C       -0.05880000       0.03060000      -0.06170000
C        0.67890000      -0.51790000      -1.25500000
N        0.29770000      -0.06430000      -2.46430000
C        0.95700000      -0.53750000      -3.51310000
N        1.96410000      -1.41980000      -3.50710000
C        2.31480000      -1.84450000      -2.31480000
F        3.30810000      -2.71930000      -2.26490000
C        1.71540000      -1.43730000      -1.12910000
H        1.27540000       1.70900000       0.36200000
H       -0.05070000       2.09180000      -0.74870000
H       -0.36910000       1.91250000       0.98850000
H        0.21430000      -0.53690000       0.83370000
H       -1.13130000      -0.11660000      -0.23090000
H        0.64900000      -0.17410000      -4.49030000
H        2.04420000      -1.82210000      -0.17230000
