21
Properties=species:S:1:pos:R:3 gdb_56578=T pbc="F F F"
C       -0.19820000       1.48750000      -0.01890000
C        0.08130000      -0.02510000       0.07690000
C        0.66910000      -0.53180000      -1.16630000
N        1.14560000      -0.92920000      -2.14180000
C        0.96670000      -0.43350000       1.29150000
C        2.33340000       0.25030000       1.30540000
N        0.22970000      -0.09830000       2.50870000
C       -0.71640000      -1.09750000       3.00070000
C        0.57280000      -0.85810000       3.70520000
H        0.70770000       2.04530000      -0.26660000
H       -0.94030000       1.68960000      -0.79480000
H       -0.57710000       1.84000000       0.94200000
H       -0.87810000      -0.54230000       0.20470000
H        1.12430000      -1.52500000       1.21700000
H        2.94040000      -0.13920000       2.12750000
H        2.86970000       0.06490000       0.37060000
H        2.23080000       1.32900000       1.44820000
H       -1.64810000      -0.71100000       3.40280000
H       -0.80940000      -2.03100000       2.44710000
H        1.33310000      -1.63260000       3.61670000
H        0.60260000      -0.29430000       4.63280000
