18
Properties=species:S:1:pos:R:3 gdb_82248=T pbc="F F F"
O       -0.01930000       1.43710000      -0.14750000
C       -0.01790000       0.03230000      -0.01550000
C       -1.39910000      -0.63510000       0.00360000
C       -2.24460000      -0.47450000      -1.19910000
N       -1.48320000      -1.72150000      -1.00410000
C       -0.18100000      -1.80300000      -1.69990000
C       -0.05420000      -1.10300000      -3.06280000
O        0.54280000       0.06870000      -2.44210000
C        0.71100000      -0.65530000      -1.19030000
H       -0.07090000       1.61520000      -1.09660000
H        0.49950000      -0.19130000       0.92370000
H       -1.85190000      -0.84000000       0.96930000
H       -3.32150000      -0.59720000      -1.12840000
H       -1.92300000       0.24190000      -1.94910000
H        0.18860000      -2.82720000      -1.63620000
H        0.65560000      -1.58520000      -3.74460000
H       -0.97860000      -0.87080000      -3.59960000
H        1.76880000      -0.85720000      -0.99530000
