17
Properties=species:S:1:pos:R:3 gdb_3984=T pbc="F F F"
C        0.13600000       1.54750000      -0.01850000
C       -0.02700000       0.05110000      -0.02610000
C       -0.00360000      -0.71810000       1.26910000
C        1.38610000      -0.69650000       1.94720000
C        1.39790000      -1.53910000       3.20290000
O        1.68930000      -1.13870000       4.29980000
N       -0.18470000      -0.64660000      -1.08600000
O       -0.17160000       0.15350000      -2.23950000
H        1.09870000       1.83520000      -0.45520000
H       -0.63620000       2.01300000      -0.63750000
H        0.07970000       1.95090000       0.99470000
H       -0.74240000      -0.28940000       1.95880000
H       -0.30000000      -1.75070000       1.06270000
H        2.12110000      -1.12120000       1.24960000
H        1.70070000       0.31800000       2.20620000
H        1.09870000      -2.60180000       3.04180000
H       -0.33000000      -0.49270000      -2.93560000
