19
Properties=species:S:1:pos:R:3 gdb_77626=T pbc="F F F"
C        0.00590000       1.56850000      -0.01930000
C        0.08230000       0.05870000      -0.03770000
C        0.68810000      -0.74020000      -1.14750000
C        0.03530000      -1.80210000      -1.96790000
O        1.78340000      -0.02910000      -1.73590000
C        2.52980000      -0.08000000      -0.49500000
C        1.36390000      -0.74240000       0.24050000
C        1.47000000      -1.74370000       1.23930000
C        1.56940000      -2.59350000       2.08720000
H        0.79250000       2.01010000      -0.63510000
H       -0.95520000       1.90360000      -0.42340000
H        0.09530000       1.95980000       0.99930000
H       -0.77070000      -0.44850000       0.40830000
H       -0.49380000      -1.35610000      -2.81790000
H        0.77690000      -2.50520000      -2.35810000
H       -0.69170000      -2.35420000      -1.36600000
H        3.39650000      -0.74120000      -0.59290000
H        2.85040000       0.91110000      -0.15500000
H        1.65530000      -3.34150000       2.83560000
