21
Properties=species:S:1:pos:R:3 gdb_82235=T pbc="F F F"
C        0.07850000       1.59900000       0.02060000
C        0.08290000       0.06750000      -0.02080000
C        0.73580000      -0.55930000      -1.25390000
C        2.22800000      -0.43710000      -1.41180000
C        1.63820000      -1.69870000      -0.81770000
C        1.58820000      -1.82150000       0.70160000
C        2.74700000      -1.18430000       1.49330000
O        2.01700000       0.05840000       1.62190000
C        0.78880000      -0.58360000       1.18250000
H        1.09860000       1.98790000       0.06010000
H       -0.41440000       2.01050000      -0.86560000
H       -0.45410000       1.96860000       0.90310000
H       -0.95820000      -0.28410000       0.00790000
H        0.13260000      -0.64320000      -2.15220000
H        2.63090000      -0.50960000      -2.41650000
H        2.76250000       0.24780000      -0.76370000
H        1.70390000      -2.61060000      -1.40050000
H        1.25750000      -2.81000000       1.02450000
H        2.92800000      -1.64260000       2.47470000
H        3.70090000      -1.05350000       0.97120000
H        0.11330000      -0.72440000       2.03610000
