20
Properties=species:S:1:pos:R:3 gdb_82520=T pbc="F F F"
C       -0.45420000       1.39540000      -0.26020000
N        0.02470000       0.05280000       0.04180000
C        1.35490000      -0.44860000      -0.21680000
C        2.58240000       0.47090000      -0.30310000
C        2.78850000       1.07320000       1.09290000
C        4.16440000       1.47540000       1.55020000
O        1.72050000       1.94480000       1.50150000
C        1.69950000       0.58540000       1.96240000
C        0.80530000      -0.36580000       1.18870000
H        0.31990000       2.16290000      -0.32900000
H       -1.00220000       1.34650000      -1.20800000
H       -1.15890000       1.70160000       0.51820000
H        1.39920000      -1.37820000      -0.78190000
H        3.45500000      -0.13370000      -0.57320000
H        2.48800000       1.25320000      -1.06490000
H        4.57160000       2.26480000       0.90820000
H        4.12860000       1.85680000       2.57370000
H        4.85360000       0.62530000       1.51390000
H        1.80930000       0.45760000       3.03690000
H        0.42030000      -1.22410000       1.73550000
