17
Properties=species:S:1:pos:R:3 gdb_17297=T pbc="F F F"
C       -0.11860000       1.46520000      -0.04250000
C        0.03640000      -0.02720000       0.04800000
O       -1.22660000      -0.75010000      -0.04360000
C       -0.94910000      -1.46930000       1.18800000
C        0.44980000      -0.85040000       1.27660000
N        1.61140000      -1.49010000       0.53320000
C        1.11290000      -2.15590000      -0.68820000
C        1.20860000      -0.68980000      -0.70730000
H        0.84190000       1.96420000       0.12080000
H       -0.48310000       1.74510000      -1.03740000
H       -0.83630000       1.82880000       0.69790000
H       -1.62240000      -1.15040000       1.99380000
H       -1.02110000      -2.55660000       1.07150000
H        0.78740000      -0.42780000       2.22150000
H        1.89910000      -2.71300000      -1.18870000
H        0.13680000      -2.62710000      -0.71300000
H        1.94680000      -0.14680000      -1.29100000
