20
Properties=species:S:1:pos:R:3 gdb_8068=T pbc="F F F"
C        0.01580000       1.32920000      -0.28470000
O       -0.06840000       0.09090000       0.38540000
C       -1.29740000      -0.55360000       0.20640000
C       -1.56460000      -1.40080000      -1.07870000
C       -0.50040000      -2.40300000      -0.54750000
C       -1.36060000      -2.02150000       0.70510000
C       -1.19070000      -2.50200000       2.12120000
C       -2.60920000      -2.16540000      -0.22070000
H        0.98510000       1.76880000      -0.03740000
H       -0.05350000       1.21200000      -1.37620000
H       -0.77940000       2.01940000       0.03820000
H       -2.12560000       0.10130000       0.52090000
H       -1.69200000      -1.04610000      -2.10180000
H       -0.59300000      -3.43580000      -0.89560000
H        0.53580000      -2.06500000      -0.54460000
H       -0.21610000      -2.19870000       2.51760000
H       -1.96470000      -2.08490000       2.77530000
H       -1.25490000      -3.59400000       2.17850000
H       -3.51140000      -1.62020000       0.07560000
H       -2.84580000      -3.18040000      -0.54840000
