18
Properties=species:S:1:pos:R:3 gdb_94519=T pbc="F F F"
C       -0.29700000      -0.59720000      -0.87240000
N       -0.18170000      -0.76920000       0.55950000
C       -1.19260000      -0.12340000       1.42510000
C       -0.07540000       0.26180000       2.42390000
C        0.90930000      -0.07910000       1.28510000
C        2.08370000      -0.98270000       1.63370000
O        2.44760000      -1.17560000       2.77300000
C        2.75300000      -1.60980000       0.50520000
C        3.32670000      -2.09840000      -0.43400000
H        0.56110000      -1.05380000      -1.37300000
H       -1.20270000      -1.09950000      -1.22820000
H       -0.35220000       0.46590000      -1.17680000
H       -1.65240000       0.76040000       0.95480000
H       -1.98760000      -0.79180000       1.77120000
H       -0.06790000       1.28930000       2.78500000
H        0.02830000      -0.42190000       3.26640000
H        1.29230000       0.81150000       0.75570000
H        3.84170000      -2.54280000      -1.25110000
