16
Properties=species:S:1:pos:R:3 gdb_102270=T pbc="F F F"
N        0.16390000       1.47870000       0.02450000
C        0.06090000       0.02500000       0.00990000
C        0.84970000      -0.54100000       1.19430000
O        0.20520000      -0.09300000       2.39410000
C        1.03900000       0.13680000       3.46130000
N        0.29950000       0.55870000       4.52280000
O        2.23690000       0.01260000       3.43100000
C        0.87740000      -2.01250000       1.16700000
N        0.88730000      -3.16640000       1.11840000
H       -0.24800000       1.86480000      -0.81800000
H       -0.36400000       1.84970000       0.80780000
H       -0.96490000      -0.37510000       0.05370000
H        0.52050000      -0.35670000      -0.90740000
H        1.87480000      -0.16240000       1.18330000
H       -0.69550000       0.41210000       4.51570000
H        0.76980000       0.58580000       5.41110000
