18
Properties=species:S:1:pos:R:3 gdb_74230=T pbc="F F F"
N        0.01960000       1.41690000       0.03290000
C       -0.02690000       0.04330000       0.08170000
C       -1.19670000      -0.63770000       0.16470000
C       -1.33220000      -2.09660000       0.19540000
O       -2.27410000      -2.68900000      -0.26920000
O       -0.31570000      -2.83240000       0.76680000
C        0.44410000      -2.23680000       1.82260000
C        1.65340000      -1.45090000       1.31350000
C        1.31800000      -0.65060000       0.03910000
H        0.82050000       1.84210000      -0.40560000
H       -0.84770000       1.90520000      -0.13160000
H       -2.13850000      -0.10830000       0.06250000
H       -0.20650000      -1.58510000       2.41380000
H        0.76240000      -3.06600000       2.46050000
H        1.99330000      -0.78270000       2.11330000
H        2.48400000      -2.12630000       1.08390000
H        1.31110000      -1.34310000      -0.80770000
H        2.11160000       0.07860000      -0.15240000
