18
Properties=species:S:1:pos:R:3 gdb_77411=T pbc="F F F"
C        0.09330000       1.55220000       0.05840000
C        0.04640000       0.05590000      -0.01680000
C        0.61760000      -0.80540000      -1.11330000
N        2.08180000      -0.92800000      -0.88250000
C        1.14210000      -1.81600000      -0.14030000
C        0.57160000      -1.02010000       0.99110000
O        1.09180000      -0.85380000       2.26260000
C       -0.90520000      -0.79450000       0.82530000
O       -1.53000000      -0.16140000       1.89630000
H        1.11430000       1.92440000      -0.07420000
H       -0.53190000       2.00200000      -0.72210000
H       -0.29000000       1.89760000       1.02190000
H        0.19110000      -1.00800000      -2.08910000
H        2.45900000      -1.48210000      -1.65350000
H        1.18970000      -2.89360000      -0.24570000
H        1.93800000      -0.39810000       2.18490000
H       -1.54380000      -1.54330000       0.35750000
H       -0.89710000      -0.16260000       2.62740000
