18
Properties=species:S:1:pos:R:3 gdb_95031=T pbc="F F F"
O        0.17420000       1.46890000       0.08670000
C        0.10080000       0.05310000       0.08540000
C        0.62830000      -0.49050000       1.42900000
O       -0.50000000      -0.69960000       2.28040000
C       -1.58550000      -1.10150000       1.46380000
C       -2.83480000      -0.21490000       1.52740000
C       -2.47040000       1.19730000       1.38600000
N       -2.55020000       0.38420000       0.14290000
C       -1.33540000      -0.52430000       0.06250000
H       -0.50210000       1.80080000      -0.51410000
H        0.69420000      -0.34830000      -0.74830000
H        1.16790000      -1.43610000       1.26700000
H        1.29760000       0.22280000       1.91590000
H       -1.77350000      -2.17810000       1.53930000
H       -3.82800000      -0.55910000       1.79260000
H       -3.28130000       1.91790000       1.43010000
H       -1.51290000       1.54990000       1.74700000
H       -1.49330000      -1.21460000      -0.76690000
