21
Properties=species:S:1:pos:R:3 gdb_90858=T pbc="F F F"
C       -0.11130000       1.58100000       0.09420000
C        0.01220000       0.06020000       0.02720000
C        0.75580000      -0.43800000      -1.26820000
C        0.86440000      -1.97210000      -1.26840000
C        1.81450000      -2.95780000      -0.52880000
C        2.40650000      -2.53780000       0.85070000
C        1.05760000      -1.86480000       1.05760000
C        0.85880000      -0.54620000       1.12150000
C        0.40320000      -2.69710000      -0.04090000
H        0.87680000       2.05480000       0.12470000
H       -0.64110000       1.97620000      -0.77880000
H       -0.65770000       1.89350000       0.99000000
H       -0.99010000      -0.38380000       0.01190000
H        0.20140000      -0.12380000      -2.16200000
H        1.73440000       0.05360000      -1.32120000
H        0.55200000      -2.42840000      -2.20650000
H        2.16440000      -3.82810000      -1.07620000
H        2.57480000      -3.44610000       1.44100000
H        3.29800000      -1.90310000       0.88910000
H        1.58210000       0.09780000       1.62060000
H       -0.44660000      -3.36290000       0.04010000
