18
Properties=species:S:1:pos:R:3 gdb_108845=T pbc="F F F"
C       -0.05730000       1.56100000      -0.06350000
C        0.01960000       0.03820000       0.01590000
O        0.78730000      -0.46960000      -1.09510000
C        1.83240000      -1.22180000      -0.63010000
N        2.69500000      -1.81410000      -1.34600000
C        1.78120000      -1.22500000       0.84120000
C        2.78930000      -1.95100000       1.66290000
O        2.48470000      -1.76460000       3.03380000
C        0.72970000      -0.50080000       1.22580000
H        0.94180000       1.99860000       0.01330000
H       -0.50590000       1.86850000      -1.01170000
H       -0.67360000       1.94960000       0.75330000
H       -0.99310000      -0.38200000      -0.06970000
H        2.51230000      -1.65700000      -2.33810000
H        2.77960000      -3.01470000       1.37660000
H        3.79270000      -1.57560000       1.40630000
H        3.13460000      -2.24880000       3.55050000
H        0.41440000      -0.30890000       2.24160000
