12
Properties=species:S:1:pos:R:3 gdb_942=T pbc="F F F"
N       -0.00450000       1.37640000       0.16640000
C       -0.00320000       0.00400000       0.06260000
C       -1.20410000      -0.73880000       0.03620000
N       -1.21020000      -2.06020000      -0.01390000
C       -0.01770000      -2.67270000      -0.03420000
C        1.16250000      -1.94330000      -0.01130000
N        1.18350000      -0.60860000       0.03200000
H        0.87450000       1.81450000      -0.06440000
H       -0.82190000       1.86630000      -0.16000000
H       -2.16740000      -0.23220000       0.05700000
H       -0.01390000      -3.75730000      -0.07300000
H        2.12790000      -2.44320000      -0.03400000
