16
Properties=species:S:1:pos:R:3 gdb_123454=T pbc="F F F"
C       -0.02460000       1.41890000       0.60210000
C       -0.13770000      -0.03860000       0.19900000
C       -1.29470000      -0.55310000      -0.54180000
O       -0.05740000      -0.28690000      -1.21150000
C        1.33340000       1.97470000       0.30870000
C        2.24850000       2.70510000       1.03140000
N        3.33450000       2.96090000       0.24840000
N        3.14740000       2.42630000      -0.92430000
N        1.93980000       1.83380000      -0.89750000
H       -0.79150000       1.99400000       0.06820000
H       -0.23360000       1.52410000       1.67140000
H        0.44590000      -0.73730000       0.79860000
H       -1.56270000      -1.60530000      -0.46900000
H       -2.11360000       0.12050000      -0.78960000
H        2.18770000       3.05550000       2.04930000
H        1.59780000       1.31890000      -1.69560000
