16
Properties=species:S:1:pos:R:3 gdb_33945=T pbc="F F F"
C       -0.01120000      -1.20410000      -0.08000000
C        0.04080000      -0.00570000       0.00100000
C        0.06890000       1.42030000       0.14210000
O        0.28000000       2.20770000      -1.04100000
C        1.27840000       2.26910000      -0.02760000
C        1.19600000       3.47190000       0.90690000
C       -0.14320000       3.33610000       1.63310000
N       -1.32910000       3.41260000       0.76270000
C       -0.82430000       2.09250000       1.17970000
H       -0.04890000      -2.26180000      -0.16770000
H        2.24570000       1.85580000      -0.30570000
H        2.01910000       3.42580000       1.62840000
H        1.27780000       4.41460000       0.35720000
H       -0.22240000       3.68930000       2.65660000
H       -2.14450000       3.64440000       1.32610000
H       -1.41280000       1.46200000       1.83520000
