23
Properties=species:S:1:pos:R:3 gdb_80615=T pbc="F F F"
C       -0.14380000       1.51750000      -0.09180000
C        0.03920000       0.00300000      -0.02790000
C        1.03000000      -0.53390000      -1.08940000
C        1.21950000      -2.01780000      -0.72530000
C        1.90810000      -1.31230000       0.46180000
O        2.32980000      -0.26270000      -0.47010000
C        0.76960000      -0.60060000       1.24850000
C        1.37020000       0.44530000       2.19670000
C       -0.12050000      -1.55940000       2.04850000
H        0.81950000       2.03400000      -0.08600000
H       -0.66840000       1.79630000      -1.01260000
H       -0.73740000       1.89350000       0.74720000
H       -0.93890000      -0.47650000      -0.15310000
H        0.94200000      -0.17010000      -2.11450000
H        0.34450000      -2.64920000      -0.55870000
H        1.94490000      -2.50690000      -1.37620000
H        2.72710000      -1.75400000       1.03240000
H        2.09390000       1.08000000       1.68210000
H        0.59640000       1.08510000       2.63270000
H        1.88570000      -0.05210000       3.02670000
H        0.45470000      -2.07070000       2.82960000
H       -0.92670000      -1.00950000       2.54690000
H       -0.58610000      -2.32490000       1.42150000
