18
Properties=species:S:1:pos:R:3 gdb_86729=T pbc="F F F"
C       -0.02120000       1.48250000       0.10270000
C        0.01330000      -0.03600000       0.04940000
O        1.05130000      -0.67190000       0.06330000
N       -1.20050000      -0.67830000      -0.02060000
C       -1.29760000      -2.14500000      -0.10260000
C       -2.81880000      -2.44800000       0.02190000
O       -3.17280000      -3.11380000       1.23140000
C       -3.44000000      -1.07550000      -0.09300000
C       -2.48650000      -0.13800000      -0.05780000
H        1.00710000       1.83580000       0.16960000
H       -0.48640000       1.90290000      -0.79480000
H       -0.58250000       1.84320000       0.97060000
H       -0.88300000      -2.48410000      -1.05630000
H       -0.72910000      -2.61800000       0.70020000
H       -3.14110000      -3.13590000      -0.76490000
H       -3.10190000      -2.46930000       1.94490000
H       -4.50460000      -0.89560000      -0.11890000
H       -2.60710000       0.93580000      -0.06390000
