18
Properties=species:S:1:pos:R:3 gdb_75588=T pbc="F F F"
C       -0.01130000       1.38370000      -0.47940000
C        0.07240000      -0.04420000       0.02150000
C       -1.08740000      -0.72770000       0.20880000
N       -1.34020000      -1.98970000       0.64980000
C       -0.33650000      -2.92650000       1.10140000
C        0.92130000      -2.83330000       0.24340000
O        1.76780000      -1.76140000       0.61910000
C        1.44920000      -0.45270000       0.35160000
O        2.35280000       0.34740000       0.41530000
H        0.38660000       2.08420000       0.26090000
H        0.58610000       1.52330000      -1.38650000
H       -1.04480000       1.66240000      -0.70460000
H       -2.00460000      -0.19990000      -0.04070000
H       -2.30220000      -2.22300000       0.82100000
H       -0.05060000      -2.75740000       2.15040000
H       -0.75600000      -3.93550000       1.02750000
H        1.52610000      -3.73150000       0.39090000
H        0.64950000      -2.76890000      -0.81720000
