14
Properties=species:S:1:pos:R:3 gdb_7421=T pbc="F F F"
N       -0.06870000       1.28460000       0.29580000
C        0.10410000       0.00770000      -0.10900000
O        1.15190000      -0.46990000      -0.50510000
C       -1.18690000      -0.85320000      -0.09230000
N       -0.87090000      -2.23890000      -0.42120000
H        0.13410000      -2.28440000      -0.59620000
H       -1.63020000      -2.58970000       1.20430000
H       -1.34820000      -2.54230000      -1.26100000
C       -1.89040000      -0.77700000       1.28470000
O       -2.25890000       0.26500000       1.77510000
O       -2.04500000      -1.96210000       1.85310000
H        0.75720000       1.85130000       0.40870000
H       -0.90040000       1.50330000       0.83230000
H       -1.88290000      -0.39890000      -0.80640000
