16
Properties=species:S:1:pos:R:3 gdb_14407=T pbc="F F F"
O       -0.05790000       1.42230000      -0.06850000
C        0.00700000       0.03880000      -0.09100000
C        0.46210000      -0.83100000      -1.27610000
C       -0.25520000      -1.92490000      -0.45280000
O        0.60960000      -2.07130000       0.68930000
C        0.39370000      -0.76600000       1.23950000
C       -1.10530000      -0.79510000       1.61380000
C       -1.27800000      -0.83710000       0.08870000
H        0.83450000       1.76930000       0.04090000
H       -0.08600000      -0.55350000      -2.18040000
H        1.52440000      -0.98380000      -1.48370000
H       -0.54970000      -2.89060000      -0.85640000
H        1.19490000      -0.48020000       1.92070000
H       -1.44260000      -1.63240000       2.22870000
H       -1.45510000       0.15920000       2.01370000
H       -2.20600000      -0.67010000      -0.45440000
