18
Properties=species:S:1:pos:R:3 gdb_83940=T pbc="F F F"
C        0.02330000       1.43500000      -0.11190000
N       -0.00400000      -0.01990000       0.04500000
C       -1.28190000      -0.53920000       0.65500000
C       -1.32760000      -2.04270000       0.37690000
O       -0.27640000      -2.70840000       1.06680000
C        0.96360000      -2.01070000       1.07180000
C        0.73270000      -0.51100000       1.26600000
C       -0.59910000      -0.29150000       2.01960000
O       -0.92230000       0.18950000       3.06300000
H        1.03230000       1.74090000      -0.40320000
H       -0.66140000       1.71720000      -0.91690000
H       -0.25980000       1.99460000       0.79550000
H       -2.19970000      -0.01170000       0.38760000
H       -2.25680000      -2.48580000       0.74750000
H       -1.25940000      -2.20200000      -0.70920000
H        1.54150000      -2.43280000       1.89950000
H        1.51420000      -2.16330000       0.13200000
H        1.63060000       0.04180000       1.54940000
