19
Properties=species:S:1:pos:R:3 gdb_14956=T pbc="F F F"
O       -0.09590000      -0.03490000      -0.10470000
C       -0.01410000       1.17580000      -0.06430000
N        1.14170000       1.89480000      -0.04980000
C        2.43860000       1.22750000      -0.07190000
C        3.30090000       1.68070000       1.11280000
C        3.39300000       3.21280000       1.17400000
C        1.99230000       3.84400000       1.19190000
C        1.15860000       3.34660000       0.00270000
H       -0.90410000       1.83630000      -0.03100000
H        2.24510000       0.15420000      -0.05460000
H        2.94980000       1.46740000      -1.01660000
H        2.85710000       1.30000000       2.04100000
H        4.29830000       1.23630000       1.02630000
H        3.96390000       3.52810000       2.05360000
H        3.94310000       3.57900000       0.29570000
H        1.47800000       3.57550000       2.12310000
H        2.05730000       4.93710000       1.15950000
H        1.58400000       3.74340000      -0.93240000
H        0.12610000       3.70380000       0.06680000
