17
Properties=species:S:1:pos:R:3 gdb_81273=T pbc="F F F"
C       -0.10660000       1.51360000       0.03210000
C       -0.03360000      -0.00500000       0.01530000
C        0.85860000      -0.62530000      -1.08920000
O        2.03950000      -0.37090000      -0.25720000
C        1.12680000      -0.61950000       0.86370000
C        0.86520000      -2.10820000       0.65350000
O        0.68210000      -3.00970000       1.42530000
C        0.73610000      -2.14920000      -0.89300000
O       -0.49580000      -2.69360000      -1.30270000
H        0.88810000       1.95270000      -0.07870000
H       -0.73630000       1.87450000      -0.78790000
H       -0.54240000       1.87340000       0.96940000
H       -1.01820000      -0.46630000       0.13480000
H        0.92480000      -0.22720000      -2.10120000
H        1.45270000      -0.24630000       1.83260000
H        1.59390000      -2.65800000      -1.35440000
H       -0.65760000      -3.47210000      -0.75500000
