20
Properties=species:S:1:pos:R:3 gdb_87767=T pbc="F F F"
C        0.15360000       1.43490000       0.20530000
C       -0.01070000      -0.03710000      -0.02480000
C       -0.89420000      -0.90500000       0.77620000
N        0.57920000      -1.08800000       0.91860000
C        0.96820000      -1.85760000      -0.29650000
C        2.24700000      -2.64750000      -0.29030000
C        0.90270000      -3.35020000      -0.26060000
O        0.44210000      -3.98130000       0.89690000
C        0.47480000      -0.78890000      -1.27190000
H        1.16430000       1.76570000      -0.05550000
H       -0.55590000       2.00220000      -0.40880000
H       -0.02800000       1.68700000       1.25390000
H       -1.34670000      -0.47360000       1.66410000
H       -1.47200000      -1.69710000       0.30600000
H        2.83560000      -2.69090000      -1.20190000
H        2.82160000      -2.63140000       0.63080000
H        0.59130000      -3.89340000      -1.14810000
H        0.43600000      -3.31880000       1.59930000
H       -0.28810000      -1.06530000      -2.00640000
H        1.29470000      -0.27710000      -1.78290000
