20
Properties=species:S:1:pos:R:3 gdb_60079=T pbc="F F F"
C        0.24030000       0.52970000      -0.80810000
C        0.06680000      -0.00740000       0.61300000
O        0.04480000       1.05270000       1.56720000
C       -1.24870000      -0.76310000       0.83040000
C       -1.39500000      -2.03950000       0.01320000
C       -2.77340000      -2.50270000      -0.33620000
N       -1.90350000      -1.95880000      -1.38390000
C       -0.36860000      -3.03450000       0.22400000
C        0.48330000      -3.85560000       0.43750000
H        1.18460000       1.07940000      -0.89750000
H        0.26140000      -0.28140000      -1.54170000
H       -0.57360000       1.21880000      -1.06010000
H        0.89530000      -0.69780000       0.83400000
H        0.85540000       1.56060000       1.46330000
H       -1.31750000      -1.00510000       1.89660000
H       -2.08650000      -0.09250000       0.60110000
H       -2.97150000      -3.56690000      -0.41420000
H       -3.60490000      -1.90380000       0.02710000
H       -2.16290000      -0.99400000      -1.57800000
H        1.23410000      -4.58600000       0.61180000
