19
Properties=species:S:1:pos:R:3 gdb_92383=T pbc="F F F"
C       -0.58990000       1.35580000       0.04100000
C        0.05260000      -0.01810000      -0.06970000
C        1.36100000      -0.17290000      -0.91200000
C        2.07840000      -0.78620000       0.30610000
O        2.77640000       0.19770000       1.08830000
C        1.66520000       0.35220000       1.99530000
C        0.78360000      -0.63070000       1.18540000
C        0.11560000      -1.68380000       1.89780000
C       -0.45610000      -2.56450000       2.48640000
H        0.13570000       2.12790000       0.31600000
H       -1.02580000       1.64810000      -0.92040000
H       -1.39270000       1.36110000       0.78630000
H       -0.69720000      -0.74020000      -0.40280000
H        1.26110000      -0.84310000      -1.76930000
H        1.82440000       0.76080000      -1.24000000
H        2.64070000      -1.71600000       0.19280000
H        1.90920000      -0.01660000       2.99800000
H        1.31850000       1.38920000       2.06590000
H       -0.95460000      -3.34350000       3.00800000
