17
Properties=species:S:1:pos:R:3 gdb_38168=T pbc="F F F"
C        0.11350000       1.48840000       0.05150000
C        1.34700000       0.58670000      -0.02810000
N        2.20720000       0.39910000       1.10510000
C        1.84300000      -0.42500000       1.99470000
O        0.70740000      -1.16660000       2.09480000
C       -0.33810000      -0.93090000       1.16140000
C       -0.59140000      -1.99720000       0.06520000
N       -0.70790000      -0.89090000      -0.93160000
C       -0.03150000       0.00700000       0.00670000
H       -0.09370000       2.00280000       0.98560000
H       -0.12460000       2.05460000      -0.84360000
H        1.88770000       0.62610000      -0.97020000
H        2.48220000      -0.63600000       2.84890000
H       -1.23460000      -0.68280000       1.73670000
H        0.28730000      -2.64060000      -0.06250000
H       -1.48990000      -2.61200000       0.16000000
H       -0.20840000      -1.05230000      -1.80110000
