20
Properties=species:S:1:pos:R:3 gdb_6974=T pbc="F F F"
C       -0.05620000       1.58980000       0.04400000
C        0.03290000       0.05840000       0.01700000
C       -1.38880000      -0.53740000      -0.07580000
C        0.88770000      -0.47290000      -1.12380000
C        1.66060000      -1.49230000      -0.74940000
C        1.47530000      -1.81490000       0.71670000
C        0.78330000      -0.53930000       1.25850000
O        1.73890000       0.35480000       1.81220000
H        0.93050000       2.05620000       0.08090000
H       -0.57230000       1.95470000      -0.85110000
H       -0.61610000       1.93520000       0.91910000
H       -1.87070000      -0.25020000      -1.01630000
H       -1.36930000      -1.63100000      -0.03490000
H       -2.01630000      -0.17480000       0.74630000
H        0.81740000      -0.07210000      -2.13030000
H        2.31780000      -2.05700000      -1.40180000
H        0.85290000      -2.71060000       0.84780000
H        2.40840000      -2.00050000       1.25950000
H        0.09010000      -0.74920000       2.07810000
H        2.41630000       0.50060000       1.14160000
