20
Properties=species:S:1:pos:R:3 gdb_57463=T pbc="F F F"
C       -0.07860000       1.53370000      -0.07930000
C        0.00360000       0.00270000      -0.02260000
C        0.66810000      -0.46170000       1.28340000
O       -1.30110000      -0.56540000      -0.14300000
C        0.80020000      -0.54410000      -1.21970000
C        0.70330000      -2.07970000      -1.44710000
N        0.14660000      -2.23690000      -2.80140000
C       -0.05310000      -1.06250000      -3.22540000
O        0.27490000       0.00490000      -2.45790000
H        0.91630000       1.98920000      -0.04050000
H       -0.57140000       1.84920000      -1.00000000
H       -0.64950000       1.91230000       0.77660000
H        0.09560000      -0.09820000       2.14380000
H        0.70410000      -1.55290000       1.34090000
H        1.68730000      -0.07250000       1.37600000
H       -1.85040000      -0.20230000       0.55880000
H        1.83580000      -0.19900000      -1.13360000
H        1.67750000      -2.57360000      -1.38490000
H        0.03320000      -2.55270000      -0.72450000
H       -0.47280000      -0.80300000      -4.19100000
