21
Properties=species:S:1:pos:R:3 gdb_119162=T pbc="F F F"
C        0.37800000       1.54870000       0.05400000
C        0.05490000       0.05220000       0.03110000
C        0.64140000      -0.68780000       1.23700000
C        0.52840000      -2.20310000       1.20780000
C       -0.51790000      -2.92240000       0.46300000
O        0.81860000      -2.83880000      -0.04270000
C        1.11980000      -2.87970000       2.41520000
C        1.93350000      -4.09370000       2.30470000
O        2.54340000      -2.81930000       2.53490000
H        1.45990000       1.72000000       0.03990000
H       -0.05190000       2.05980000      -0.81290000
H       -0.02020000       2.02890000       0.95490000
H       -1.03400000      -0.07930000       0.00700000
H        0.44610000      -0.40220000      -0.88540000
H        1.71020000      -0.45430000       1.32730000
H        0.17510000      -0.32660000       2.16410000
H       -0.82590000      -3.91290000       0.79630000
H       -1.26450000      -2.37130000      -0.10370000
H        0.58810000      -2.68610000       3.34920000
H        1.97690000      -4.78940000       3.14150000
H        2.10540000      -4.51500000       1.31790000
