13
Properties=species:S:1:pos:R:3 gdb_5045=T pbc="F F F"
N       -0.11910000       1.02840000      -0.73710000
C       -0.02040000      -0.01200000      -0.01350000
C       -1.26400000      -0.69150000       0.46150000
N       -1.54940000      -1.92050000       0.25670000
C       -0.68980000      -2.83090000      -0.30650000
C        0.66600000      -2.84690000      -0.20520000
C        1.45520000      -1.79500000       0.38370000
N        1.16360000      -0.54280000       0.49800000
H        0.81480000       1.38370000      -0.96230000
H       -1.97800000      -0.08370000       1.01820000
H       -1.19400000      -3.68320000      -0.75510000
H        1.18950000      -3.75290000      -0.49630000
H        2.43120000      -2.08750000       0.77750000
