20
Properties=species:S:1:pos:R:3 gdb_118731=T pbc="F F F"
C       -0.12390000       1.81910000      -0.34990000
C       -0.01630000       0.31300000      -0.17860000
C       -1.35130000      -0.41350000      -0.05290000
C       -2.20600000       0.02400000       1.14250000
O       -3.39710000      -0.73820000       1.25250000
C        1.02900000      -0.38840000      -1.08530000
C        1.77230000      -0.63280000       0.20830000
N        2.84930000      -1.19880000       0.51310000
O        0.83880000       0.00040000       0.99870000
H        0.86930000       2.26390000      -0.45560000
H       -0.70780000       2.05920000      -1.24450000
H       -0.61110000       2.28280000       0.51190000
H       -1.92400000      -0.27680000      -0.97810000
H       -1.14790000      -1.48860000       0.03920000
H       -1.60410000      -0.02510000       2.06140000
H       -2.53600000       1.06020000       1.02190000
H       -3.15070000      -1.64020000       1.48090000
H        0.68810000      -1.29040000      -1.59670000
H        1.54910000       0.25810000      -1.79440000
H        3.01560000      -1.15590000       1.52030000
