18
Properties=species:S:1:pos:R:3 gdb_82188=T pbc="F F F"
O        0.03820000       1.43130000       0.09120000
C        0.01750000       0.02210000      -0.03010000
C        0.77640000      -0.67120000       1.11030000
N        0.20700000      -0.30480000       2.42740000
C       -0.13660000      -1.60520000       1.80410000
C       -1.47660000      -1.63190000       1.07410000
O       -2.03660000      -2.88870000       0.84610000
C       -2.32230000      -0.39120000       1.14540000
C       -1.38440000      -0.61760000      -0.03160000
H       -0.16670000       1.61490000       1.01700000
H        0.50730000      -0.20120000      -0.98350000
H        1.84670000      -0.82870000       1.02820000
H        0.90550000      -0.44350000       3.15320000
H        0.20240000      -2.52580000       2.26710000
H       -2.57920000      -3.11590000       1.60900000
H       -3.37660000      -0.51710000       0.92170000
H       -2.08820000       0.35740000       1.89190000
H       -1.85140000      -0.81600000      -0.98900000
