20
Properties=species:S:1:pos:R:3 gdb_95089=T pbc="F F F"
C       -0.02160000       1.57740000       0.00610000
C        0.04450000       0.05050000       0.01870000
C        0.78910000      -0.56850000      -1.18820000
C        1.29510000      -1.94690000      -0.71040000
C        1.55450000      -1.77210000       0.77880000
C        2.28790000      -0.54240000       1.22790000
C        0.76450000      -0.54810000       1.23810000
C        0.08670000      -0.52210000       2.50140000
N       -0.47690000      -0.48830000       3.51210000
H        0.98250000       2.01550000       0.01570000
H       -0.53630000       1.93670000      -0.89070000
H       -0.56270000       1.95690000       0.87830000
H       -0.97980000      -0.34360000       0.03750000
H        0.14410000      -0.64160000      -2.06730000
H        1.63120000       0.07220000      -1.47250000
H        0.52140000      -2.71050000      -0.85010000
H        2.18220000      -2.28030000      -1.25890000
H        1.60030000      -2.64980000       1.41290000
H        2.77590000      -0.57890000       2.19450000
H        2.78750000       0.08540000       0.49810000
