16
Properties=species:S:1:pos:R:3 gdb_51897=T pbc="F F F"
O        0.37650000      -0.25790000       0.26570000
C        0.40530000       0.70760000      -0.45010000
C        0.84170000       2.09270000       0.01310000
N        0.76690000       3.03950000      -1.07880000
C        1.09730000       4.24360000      -0.85990000
C        1.09310000       5.39460000      -1.86010000
N        1.55560000       6.58500000      -1.13090000
C        1.78270000       6.19430000       0.06060000
N        1.54520000       4.84670000       0.31640000
H        0.11270000       0.67090000      -1.52230000
H        0.19580000       2.36890000       0.86410000
H        1.86110000       1.99170000       0.42310000
H        1.75300000       5.18520000      -2.70870000
H        0.09080000       5.56150000      -2.26870000
H        2.13960000       6.83460000       0.86080000
H        1.67550000       4.38560000       1.20000000
