22
Properties=species:S:1:pos:R:3 gdb_76654=T pbc="F F F"
C        0.09190000       1.05980000      -2.03320000
C       -0.02040000      -0.14570000      -1.12350000
C        1.11020000      -0.61500000      -0.23050000
C        2.45440000       0.07290000      -0.15770000
C       -0.13640000      -0.01010000       0.38090000
N       -0.08720000       1.30000000       0.95870000
C        0.39860000       1.51670000       2.22280000
C        0.18360000       2.92690000       2.75580000
O        0.94780000       0.64690000       2.87120000
H        0.68210000       1.86420000      -1.58850000
H        0.56920000       0.78720000      -2.98050000
H       -0.89840000       1.46540000      -2.27260000
H       -0.63380000      -0.93910000      -1.54300000
H        1.17160000      -1.69300000      -0.10660000
H        2.36910000       1.15880000      -0.23740000
H        2.93490000      -0.14620000       0.80000000
H        3.11360000      -0.27130000      -0.96210000
H       -0.80350000      -0.69740000       0.89650000
H       -0.64030000       2.02640000       0.53210000
H        0.07900000       3.67440000       1.96420000
H       -0.72320000       2.94700000       3.36970000
H        1.02570000       3.19000000       3.39730000
