18
Properties=species:S:1:pos:R:3 gdb_112473=T pbc="F F F"
O       -0.24790000       1.53870000       0.14510000
C        0.03210000       0.14660000       0.15860000
C       -1.30610000      -0.57550000      -0.05350000
N       -1.88990000      -0.15410000      -1.31430000
C       -2.29270000      -0.91520000      -2.37140000
O       -2.71900000      -0.41890000      -3.39820000
C       -2.18880000      -2.42690000      -2.20490000
C       -1.54620000      -2.89210000      -0.93330000
C       -1.15260000      -2.06320000       0.02770000
H        0.58040000       2.01980000       0.06710000
H        0.72460000      -0.13790000      -0.64630000
H        0.46800000      -0.16580000       1.12010000
H       -1.96000000      -0.24120000       0.77000000
H       -1.93210000       0.84410000      -1.46620000
H       -3.20370000      -2.83510000      -2.30240000
H       -1.65000000      -2.80550000      -3.08240000
H       -1.41690000      -3.96440000      -0.80910000
H       -0.70300000      -2.44110000       0.94130000
