18
Properties=species:S:1:pos:R:3 gdb_17537=T pbc="F F F"
O       -0.03290000       1.41470000       0.09910000
C       -0.07430000       0.01560000       0.07370000
C       -0.44300000      -0.82360000       1.26210000
C       -1.54350000      -0.13380000       2.08200000
C       -2.42080000      -0.09840000       0.81270000
C       -3.88400000      -0.39330000       0.75070000
C       -3.37850000       0.97910000       0.35770000
C       -1.34060000      -0.78100000      -0.00500000
H       -0.93550000       1.73640000       0.00660000
H        0.74790000      -0.38650000      -0.51360000
H        0.18930000      -1.62730000       1.62000000
H       -1.96540000      -0.77460000       2.85990000
H       -1.26480000       0.83070000       2.51830000
H       -4.24300000      -1.04750000      -0.03780000
H       -4.42600000      -0.48560000       1.68660000
H       -3.58140000       1.80450000       1.03320000
H       -3.40560000       1.24430000      -0.69510000
H       -1.51920000      -1.53670000      -0.76260000
