16
Properties=species:S:1:pos:R:3 gdb_69695=T pbc="F F F"
C        0.04950000       1.54760000      -0.01000000
C        0.12510000       0.05890000       0.03230000
O       -0.79510000      -0.68230000       0.83030000
C        0.60170000      -0.92010000       1.01720000
C        1.10480000      -1.87570000      -0.12490000
C        0.61250000      -0.88960000      -1.14240000
N       -0.01640000      -2.18860000      -0.98050000
C       -0.03410000      -3.19810000      -1.92220000
O        0.40390000      -4.31090000      -1.75660000
H        0.97030000       1.97120000      -0.42420000
H       -0.78600000       1.87460000      -0.63890000
H       -0.09970000       1.94860000       0.99570000
H        1.01420000      -0.81180000       2.01300000
H        1.99860000      -2.48420000      -0.13030000
H        1.07280000      -0.58840000      -2.07560000
H       -0.57060000      -2.88090000      -2.83710000
