13
Properties=species:S:1:pos:R:3 gdb_4274=T pbc="F F F"
N        0.08930000       1.40790000       0.15760000
C       -0.01710000       0.02830000       0.04000000
C       -1.16470000      -0.69230000       0.00850000
C       -1.14490000      -2.15180000      -0.02410000
O       -2.15030000      -2.83330000      -0.04350000
N        0.14400000      -2.76910000      -0.04870000
C        1.18320000      -2.02620000      -0.02170000
N        1.18360000      -0.65180000       0.01270000
H        0.77570000       1.83350000      -0.45330000
H       -0.80130000       1.87900000       0.07780000
H       -2.12760000      -0.19690000      -0.00080000
H        2.17890000      -2.46930000      -0.02920000
H        2.04520000      -0.15310000       0.17040000
