16
Properties=species:S:1:pos:R:3 gdb_5724=T pbc="F F F"
C        0.01130000       1.42970000      -0.15600000
C        1.48010000       1.86070000       0.12520000
N        2.15870000       0.59610000      -0.07830000
C        3.45670000       0.13990000      -0.12150000
C        3.39550000      -1.23610000      -0.11920000
C        2.02020000      -1.63290000      -0.06680000
C        1.29580000      -0.46700000      -0.02940000
N       -0.04770000      -0.03560000       0.05720000
H       -0.71170000       1.94890000       0.47580000
H       -0.23490000       1.64380000      -1.20160000
H        1.82160000       2.63210000      -0.57040000
H        1.62700000       2.22890000       1.14990000
H        4.29250000       0.81630000      -0.19290000
H        4.24530000      -1.89940000      -0.18100000
H        1.63050000      -2.63800000      -0.06740000
H       -0.45970000      -0.26590000       0.95540000
