16
Properties=species:S:1:pos:R:3 gdb_29966=T pbc="F F F"
C       -0.48400000       1.32130000       0.11580000
N       -0.07780000      -0.06560000      -0.00130000
C        0.84530000      -0.57750000      -0.86260000
N        0.99050000      -1.87630000      -0.72570000
C        0.11760000      -2.22790000       0.27530000
C        0.00870000      -3.66330000       0.71140000
C       -0.96530000      -3.85820000       1.78360000
N       -1.73850000      -3.99540000       2.63100000
C       -0.55370000      -1.12620000       0.73850000
H       -0.28180000       1.70250000       1.12110000
H        0.08080000       1.91700000      -0.60360000
H       -1.55110000       1.43430000      -0.09720000
H        1.37650000       0.04950000      -1.56400000
H       -0.27240000      -4.29630000      -0.13920000
H        0.98500000      -4.03000000       1.05140000
H       -1.30290000      -1.00320000       1.50290000
