23
Properties=species:S:1:pos:R:3 gdb_58302=T pbc="F F F"
C        0.03790000       1.58940000      -0.02480000
C        0.04830000       0.06050000       0.03050000
O        0.59790000      -0.49630000      -1.16430000
C        0.84300000      -0.53190000       1.21020000
C        0.56770000      -2.03950000       1.32170000
C        2.35190000      -0.22340000       1.10560000
C        3.12900000      -0.60990000       2.34060000
C        4.20190000       0.23160000       2.88450000
O        2.91570000       0.20040000       3.50490000
H        1.03850000       1.99230000      -0.20320000
H       -0.61020000       1.93620000      -0.83850000
H       -0.34860000       2.01320000       0.90770000
H       -0.99510000      -0.27900000       0.14770000
H        0.10750000      -0.14230000      -1.91220000
H        0.46850000      -0.04170000       2.11810000
H        1.06290000      -2.48090000       2.19090000
H       -0.50570000      -2.23020000       1.42690000
H        0.91290000      -2.56070000       0.42400000
H        2.76920000      -0.74300000       0.23560000
H        2.50050000       0.84840000       0.93940000
H        3.18150000      -1.67660000       2.56240000
H        5.01070000      -0.21820000       3.45950000
H        4.45610000       1.16460000       2.38230000
