21
Properties=species:S:1:pos:R:3 gdb_78354=T pbc="F F F"
C       -0.09780000       1.39010000      -0.02150000
C        0.06600000      -0.11180000       0.07980000
C        1.43630000      -0.67650000      -0.21120000
C        0.86770000      -0.67540000       1.21970000
C        0.78850000      -2.18810000       1.18780000
C        1.03690000      -3.16450000       2.29220000
C       -0.33090000      -3.07670000       1.64960000
C        1.44640000      -2.20950000      -0.21510000
O        0.83000000      -2.91760000      -1.26430000
H        0.80220000       1.90830000       0.32610000
H       -0.28090000       1.70070000      -1.05590000
H       -0.93870000       1.73860000       0.58740000
H       -0.81430000      -0.67430000      -0.23440000
H        2.21320000      -0.04810000      -0.63140000
H        1.18400000      -0.07310000       2.06320000
H        1.65070000      -4.03440000       2.07780000
H        1.14850000      -2.77880000       3.30090000
H       -1.14100000      -2.63790000       2.22350000
H       -0.62750000      -3.88060000       0.98290000
H        2.46760000      -2.59850000      -0.16270000
H       -0.04850000      -2.54400000      -1.39370000
