18
Properties=species:S:1:pos:R:3 gdb_36632=T pbc="F F F"
N        0.01550000      -1.18390000      -0.08780000
C       -0.00270000      -0.02890000      -0.11980000
C        0.00120000       1.43120000      -0.15310000
C        1.40800000       2.02070000       0.13050000
C        1.41440000       3.51800000       0.10170000
C        1.62570000       4.36100000       1.10940000
C        1.56210000       5.77950000       0.62480000
O        1.25860000       5.68470000      -0.76560000
C        1.19290000       4.32120000      -1.15940000
H       -0.36210000       1.75720000      -1.13350000
H       -0.71360000       1.80360000       0.58870000
H        1.75120000       1.66340000       1.10540000
H        2.10480000       1.62310000      -0.61780000
H        1.83300000       4.09410000       2.13860000
H        0.78360000       6.36860000       1.13420000
H        2.51540000       6.31340000       0.76840000
H        1.96250000       4.10320000      -1.91950000
H        0.21650000       4.12230000      -1.63030000
