19
Properties=species:S:1:pos:R:3 gdb_38861=T pbc="F F F"
C       -0.04960000       1.52740000       0.08830000
C        1.48860000       1.41360000      -0.06810000
O        2.05860000       1.13110000       1.21570000
C        1.73530000      -0.19620000       1.61220000
C        2.61100000      -1.18790000       0.84850000
C        2.31180000      -1.02020000      -0.66370000
C        1.25810000       0.06850000      -0.82520000
C       -0.01660000      -0.02250000       0.07070000
O        0.36360000      -0.48610000       1.37190000
H       -0.41850000       2.00200000       0.99880000
H       -0.53150000       1.94680000      -0.79900000
H        2.07140000       2.21970000      -0.51790000
H        1.88420000      -0.24790000       2.69280000
H        3.65970000      -0.98170000       1.08010000
H        2.38360000      -2.19900000       1.19760000
H        3.21600000      -0.74760000      -1.21740000
H        1.94930000      -1.95630000      -1.10080000
H        0.98680000       0.25220000      -1.86690000
H       -0.88610000      -0.60190000      -0.24530000
