24
Properties=species:S:1:pos:R:3 gdb_60095=T pbc="F F F"
C       -0.13040000       1.35990000       0.41900000
C       -0.00160000      -0.14050000       0.11970000
C       -1.37680000      -0.81880000       0.19150000
C        0.66390000      -0.41000000      -1.24580000
C        2.15380000      -0.15250000      -1.31940000
C        3.30420000      -0.79980000      -0.50290000
N        4.08480000       0.11130000      -1.46500000
C        3.09470000      -0.39990000      -2.52470000
C        2.99310000       1.14450000      -1.15060000
H        0.83730000       1.86800000       0.41400000
H       -0.76730000       1.84950000      -0.32770000
H       -0.58640000       1.52510000       1.40090000
H        0.63400000      -0.59070000       0.89580000
H       -2.04930000      -0.42180000      -0.57860000
H       -1.29860000      -1.90030000       0.03850000
H       -1.85160000      -0.64990000       1.16370000
H        0.50180000      -1.46230000      -1.51740000
H        0.15620000       0.18250000      -2.02070000
H        3.41850000      -0.51900000       0.54820000
H        3.50550000      -1.86510000      -0.65220000
H        3.27810000      -1.43450000      -2.83080000
H        3.00560000       0.26030000      -3.39280000
H        2.89620000       1.92400000      -1.91250000
H        3.08960000       1.57850000      -0.15140000
