21
Properties=species:S:1:pos:R:3 gdb_40963=T pbc="F F F"
C        0.00470000       1.33820000      -0.35440000
C        1.45090000       1.52700000       0.14260000
C        1.27920000       0.11730000       0.75280000
C        2.14710000      -1.00050000       0.17670000
C        1.75740000      -2.34570000       0.80440000
C        1.79600000      -2.23500000       2.32870000
O        0.94860000      -1.19740000       2.79460000
C        1.30400000       0.06900000       2.28080000
O       -0.08660000       0.03230000       0.24730000
H       -0.73590000       2.03330000       0.05940000
H       -0.12220000       1.29820000      -1.44320000
H        2.21370000       1.60330000      -0.63460000
H        1.59790000       2.33000000       0.86880000
H        2.04030000      -1.02240000      -0.91280000
H        3.19980000      -0.77390000       0.39770000
H        0.74060000      -2.60810000       0.49300000
H        2.42780000      -3.14430000       0.46790000
H        1.44040000      -3.15240000       2.80610000
H        2.83290000      -2.05640000       2.66750000
H        2.31350000       0.36390000       2.62490000
H        0.58010000       0.78090000       2.68770000
