16
Properties=species:S:1:pos:R:3 gdb_52752=T pbc="F F F"
C       -0.06750000       1.35100000       0.23220000
C       -0.01410000      -0.09140000       0.04760000
C        0.03600000      -1.28410000      -0.10100000
C        0.09040000      -2.73940000      -0.28320000
N       -1.23910000      -3.34720000      -0.19010000
C       -1.55010000      -4.25400000       0.77570000
O       -0.78780000      -4.65050000       1.63040000
C        0.75080000      -3.09800000      -1.54630000
C        1.28110000      -3.39510000      -2.58160000
H        0.58950000       1.66950000       1.04850000
H        0.24590000       1.87840000      -0.67520000
H       -1.08340000       1.68020000       0.47560000
H        0.64620000      -3.19170000       0.54930000
H       -1.93840000      -3.06710000      -0.85950000
H       -2.59960000      -4.59610000       0.69150000
H        1.75940000      -3.65820000      -3.49270000
