12
Properties=species:S:1:pos:R:3 gdb_20472=T pbc="F F F"
C        0.90560000       1.10500000      -0.01260000
O        0.21170000       0.14750000      -0.81300000
C       -0.41940000       0.59460000       0.38620000
C       -0.57540000      -0.43150000       1.43340000
C       -0.11110000      -1.70780000       1.49940000
O       -0.51810000      -2.25490000       2.64080000
N       -1.28580000      -1.25380000       3.31420000
N       -1.29730000      -0.22680000       2.58970000
H        1.79100000       0.73400000       0.50010000
H        0.98720000       2.10210000      -0.44160000
H       -1.28190000       1.24520000       0.24880000
H        0.47510000      -2.31320000       0.82910000
