16
Properties=species:S:1:pos:R:3 gdb_94029=T pbc="F F F"
O       -0.05030000       1.39900000       0.06150000
C        0.03780000      -0.01850000      -0.01630000
C       -1.40120000      -0.53560000      -0.01530000
O       -1.43850000      -1.92150000      -0.32160000
C       -1.00750000      -2.20820000      -1.63690000
C        0.24470000      -1.45420000      -2.03740000
C        0.72320000      -0.47160000      -1.28270000
C       -0.78330000      -3.66280000      -1.72120000
N       -0.59600000      -4.79650000      -1.83250000
H        0.82670000       1.75020000       0.24400000
H        0.56770000      -0.42220000       0.86070000
H       -1.86150000      -0.42860000       0.96840000
H       -1.98310000       0.05270000      -0.74040000
H       -1.81100000      -1.96730000      -2.35800000
H        0.71090000      -1.75460000      -2.97010000
H        1.62170000       0.06410000      -1.58010000
