19
Properties=species:S:1:pos:R:3 gdb_2105=T pbc="F F F"
C       -0.02720000       1.56640000       0.01080000
C        0.02710000       0.03740000       0.00220000
C        0.71890000      -0.51420000      -1.25570000
C        0.83520000      -2.03860000      -1.18910000
O        1.51270000      -2.46710000      -0.02010000
C        0.84910000      -2.05130000       1.16150000
C        0.73370000      -0.52770000       1.24590000
H        0.98210000       1.99460000       0.00700000
H       -0.55430000       1.95010000      -0.86950000
H       -0.54370000       1.94060000       0.90140000
H       -1.00640000      -0.34250000       0.00630000
H        0.16890000      -0.22460000      -2.15950000
H        1.72620000      -0.08450000      -1.33700000
H       -0.17220000      -2.49090000      -1.22660000
H        1.40830000      -2.43090000      -2.03450000
H       -0.15780000      -2.50400000       1.20600000
H        1.43210000      -2.45260000       1.99580000
H        1.74190000      -0.09880000       1.31990000
H        0.19440000      -0.24790000       2.15920000
