23
Properties=species:S:1:pos:R:3 gdb_57379=T pbc="F F F"
C       -0.03390000       1.54060000       0.01950000
C        0.02090000       0.00320000      -0.03340000
C        0.79370000      -0.54370000       1.18140000
C       -1.40470000      -0.57960000      -0.05160000
C        0.73860000      -0.41230000      -1.30090000
C        0.31920000      -0.24570000      -2.79250000
C        1.54140000      -1.18340000      -2.70960000
C        2.22550000      -0.21440000      -1.72330000
O        0.91010000      -1.87460000      -1.56400000
H        0.97050000       1.97680000       0.02770000
H       -0.57510000       1.95160000      -0.83920000
H       -0.54890000       1.86950000       0.92800000
H        0.26640000      -0.30110000       2.10980000
H        0.89930000      -1.62980000       1.11680000
H        1.79670000      -0.10940000       1.24250000
H       -1.99020000      -0.17120000      -0.88150000
H       -1.37750000      -1.66710000      -0.16030000
H       -1.92800000      -0.33710000       0.87910000
H       -0.61690000      -0.73080000      -3.07110000
H        0.45010000       0.73410000      -3.25950000
H        1.98600000      -1.80820000      -3.48400000
H        2.53120000       0.76820000      -2.09220000
H        2.96300000      -0.67200000      -1.06320000
