16
Properties=species:S:1:pos:R:3 gdb_15770=T pbc="F F F"
C       -0.05550000       1.44270000      -0.09470000
C       -0.02180000      -0.01110000      -0.03660000
C        0.00100000      -1.21370000       0.02130000
C        0.02540000      -2.68190000       0.05860000
O       -1.27220000      -3.24920000       0.09680000
C        0.81030000      -3.23000000      -1.13600000
C        0.56650000      -4.58450000      -1.63660000
O        0.02220000      -3.43490000      -2.30890000
H        0.95690000       1.86010000      -0.12590000
H       -0.58520000       1.79210000      -0.98760000
H       -0.56190000       1.86430000       0.78040000
H        0.52350000      -3.01230000       0.97930000
H       -1.63360000      -3.12610000      -0.79220000
H        1.77790000      -2.76090000      -1.31030000
H        1.35170000      -5.10560000      -2.18060000
H       -0.16720000      -5.20820000      -1.13310000
