21
Properties=species:S:1:pos:R:3 gdb_89889=T pbc="F F F"
C        0.76650000       1.37330000       0.12390000
C       -0.03610000       0.08410000      -0.02330000
C        0.56000000      -0.94440000      -1.03440000
C        1.11180000      -1.75520000       0.15540000
C        0.19320000      -0.96270000       1.11080000
O        0.97460000      -3.20200000       0.14290000
C        2.33950000      -3.34960000       0.54150000
C        3.25950000      -2.81150000      -0.50780000
C        2.60030000      -1.86740000       0.48040000
H        1.82980000       1.16800000       0.29310000
H        0.69000000       1.99060000      -0.77790000
H        0.40570000       1.96880000       0.96980000
H       -1.08730000       0.32660000      -0.19990000
H       -0.21410000      -1.51280000      -1.55680000
H        1.28650000      -0.57630000      -1.76490000
H        0.63490000      -0.60670000       2.04640000
H       -0.70540000      -1.54170000       1.33870000
H        2.57920000      -4.11210000       1.27290000
H        4.31940000      -2.97500000      -0.33700000
H        2.94910000      -2.83000000      -1.54890000
H        3.15210000      -1.21640000       1.14530000
