20
Properties=species:S:1:pos:R:3 gdb_100278=T pbc="F F F"
C        0.27330000       1.52430000      -0.08980000
C        0.09680000       0.01870000       0.11680000
C       -1.37570000      -0.43810000       0.07220000
O       -2.02280000       0.01200000      -1.11710000
C       -1.47790000      -1.97270000       0.12710000
O       -0.97480000      -2.45020000      -1.12000000
C       -2.12980000       0.10970000       1.29720000
N       -3.24110000       0.82540000       1.00630000
O       -1.73690000      -0.12490000       2.42710000
H        1.33440000       1.79030000      -0.09810000
H       -0.16750000       1.84070000      -1.03870000
H       -0.20490000       2.09560000       0.71280000
H        0.64150000      -0.53670000      -0.65420000
H        0.50270000      -0.28120000       1.08790000
H       -1.80620000      -0.64590000      -1.79150000
H       -0.90160000      -2.35420000       0.97730000
H       -2.53010000      -2.26200000       0.25640000
H       -1.21670000      -3.37520000      -1.21580000
H       -3.49700000       0.97550000       0.04530000
H       -3.78380000       1.21310000       1.75940000
