20
Properties=species:S:1:pos:R:3 gdb_104990=T pbc="F F F"
C        0.69800000       0.56580000      -0.68440000
C       -0.01520000      -0.80590000      -0.61040000
C        0.82380000      -1.75740000       0.11820000
C        1.52760000      -2.50670000       0.74340000
C       -1.43250000      -0.70500000      -0.01640000
C       -2.37850000       0.25820000      -0.72810000
O       -2.20430000       1.58990000      -0.28340000
C       -2.02120000      -1.85020000       0.72080000
N       -1.60590000      -0.63160000       1.44640000
H        1.66950000       0.45390000      -1.17230000
H        0.09640000       1.29010000      -1.23440000
H        0.86530000       0.96450000       0.32000000
H       -0.13290000      -1.17950000      -1.63790000
H        2.15470000      -3.17950000       1.27480000
H       -2.19440000       0.25600000      -1.80820000
H       -3.41490000      -0.07490000      -0.56920000
H       -2.21150000       1.53060000       0.68150000
H       -3.09410000      -2.01690000       0.68200000
H       -1.41860000      -2.74350000       0.84850000
H       -0.71410000      -0.81270000       1.90450000
