16
Properties=species:S:1:pos:R:3 gdb_133885=T pbc="F F F"
C       -1.40990000       1.33730000       0.41000000
N       -1.56460000       0.09910000      -0.51690000
C       -0.83290000      -0.70760000       0.60430000
C        0.27100000      -1.61860000       0.14480000
C        1.52850000      -0.75510000       0.33950000
O        1.25020000       0.45860000       1.04710000
C       -0.05740000       0.61120000       0.54110000
C       -0.09590000       0.38040000      -0.97210000
C        0.81670000      -0.81310000      -1.02240000
H       -2.09040000       1.32710000       1.26370000
H       -1.44000000       2.28720000      -0.12750000
H       -1.45400000      -0.96730000       1.45920000
H        0.27780000      -2.69790000       0.19580000
H        2.51590000      -1.15180000       0.52740000
H        0.01370000       1.19940000      -1.68020000
H        1.26070000      -1.24680000      -1.90680000
