19
Properties=species:S:1:pos:R:3 gdb_97651=T pbc="F F F"
C        0.10210000       1.40680000      -0.50570000
O        0.30550000       0.06160000      -0.12000000
C        0.76520000      -0.78360000      -1.16970000
C        1.18770000      -2.08910000      -0.47630000
O        2.16710000      -1.83790000       0.50330000
C       -0.24720000      -1.01300000      -2.20170000
C       -1.09590000      -1.22340000      -3.03180000
C       -2.08700000      -1.46400000      -4.08030000
O       -2.04110000      -0.51660000      -5.13730000
H        1.03080000       1.86110000      -0.88290000
H       -0.67060000       1.48990000      -1.28100000
H       -0.22340000       1.94810000       0.38530000
H        1.66120000      -0.33370000      -1.62930000
H        0.28830000      -2.56260000      -0.05450000
H        1.62040000      -2.77060000      -1.21370000
H        1.81130000      -1.12490000       1.04800000
H       -1.97090000      -2.49340000      -4.45560000
H       -3.09710000      -1.39470000      -3.66170000
H       -1.13650000      -0.49400000      -5.46640000
