16
Properties=species:S:1:pos:R:3 gdb_5266=T pbc="F F F"
O        0.12180000       1.43040000       0.11480000
C        0.05880000       0.01450000       0.18110000
C       -1.35930000      -0.52700000      -0.06320000
C       -1.41540000      -2.02030000      -0.00680000
C       -1.99360000      -2.82640000       0.94070000
N       -1.73410000      -4.11900000       0.53750000
C       -1.01990000      -4.04210000      -0.61940000
N       -0.80870000      -2.79740000      -0.97600000
H       -0.06680000       1.68780000      -0.79330000
H        0.75420000      -0.45990000      -0.52570000
H        0.38620000      -0.25290000       1.19130000
H       -2.03940000      -0.09050000       0.67550000
H       -1.69530000      -0.18910000      -1.05290000
H       -2.55240000      -2.60940000       1.83590000
H       -2.02900000      -4.95910000       1.00570000
H       -0.68830000      -4.92120000      -1.15180000
