20
Properties=species:S:1:pos:R:3 gdb_46544=T pbc="F F F"
O       -0.36890000      -0.04190000       0.14500000
C       -0.24710000       1.16090000       0.08000000
C       -1.24140000       2.23080000       0.54300000
C       -0.70320000       3.53300000      -0.06900000
C        0.81110000       3.27460000      -0.26190000
C        1.50290000       4.15620000      -1.33710000
C        2.01790000       5.08210000      -0.20150000
C        1.73860000       3.93820000       0.80890000
N        0.84130000       1.83730000      -0.41270000
H       -2.25660000       1.97370000       0.23620000
H       -1.22660000       2.24750000       1.63880000
H       -1.16120000       3.69840000      -1.04980000
H       -0.89490000       4.41870000       0.54060000
H        2.32380000       3.61890000      -1.82260000
H        0.86360000       4.58770000      -2.11210000
H        3.04580000       5.44020000      -0.27770000
H        1.36300000       5.94280000      -0.04420000
H        1.29430000       4.19230000       1.77520000
H        2.62950000       3.32760000       0.98510000
H        1.68320000       1.33080000      -0.64120000
