16
Properties=species:S:1:pos:R:3 gdb_129767=T pbc="F F F"
N        0.13830000       1.40850000       0.13960000
C       -0.04220000       0.02460000       0.04640000
C       -1.14800000      -0.79060000       0.03310000
C       -2.64670000      -0.85740000       0.01530000
C       -2.87330000      -2.36760000      -0.02170000
C       -1.71810000      -3.05970000      -0.02750000
C       -0.61710000      -2.10440000       0.00900000
N        0.70530000      -2.15070000       0.00400000
N        1.03660000      -0.82130000       0.02810000
H        0.79060000       1.77350000      -0.54520000
H       -0.73910000       1.90330000       0.05190000
H       -3.12260000      -0.41070000       0.89950000
H       -3.10440000      -0.36950000      -0.85700000
H       -3.86680000      -2.79830000      -0.03830000
H       -1.61510000      -4.13640000      -0.05250000
H        2.00320000      -0.56230000       0.12800000
