18
Properties=species:S:1:pos:R:3 gdb_102889=T pbc="F F F"
C       -0.10660000       1.56010000      -0.08660000
C       -0.02930000       0.03510000       0.00220000
C        0.74370000      -0.43470000       1.24150000
O        0.04200000      -0.00250000       2.38670000
C        0.75170000      -0.19400000       3.60810000
C       -0.01800000       0.36730000       4.70690000
C       -0.63250000       0.82210000       5.63230000
C        0.90810000      -1.90770000       1.23940000
N        1.03880000      -3.05580000       1.24850000
H        0.89180000       2.00360000      -0.17090000
H       -0.68090000       1.86230000      -0.96650000
H       -0.58970000       1.97630000       0.80010000
H       -1.03240000      -0.40130000       0.04700000
H        0.46370000      -0.38190000      -0.88230000
H        1.75710000       0.00220000       1.22860000
H        0.92990000      -1.26610000       3.78160000
H        1.73800000       0.29490000       3.55060000
H       -1.18070000       1.22310000       6.44890000
