20
Properties=species:S:1:pos:R:3 gdb_85522=T pbc="F F F"
C        0.09930000       1.58290000       0.01220000
C        0.02210000       0.05120000       0.03250000
C        0.53770000      -0.54920000      -1.28790000
C        0.71100000      -2.06400000      -1.30700000
O        0.59930000      -2.72450000      -2.32370000
N        1.04620000      -2.63300000      -0.10850000
C        1.23850000      -1.94800000       1.13770000
C        2.22890000      -0.80810000       1.25500000
C        0.73530000      -0.53940000       1.23820000
H        1.13970000       1.91830000      -0.06170000
H       -0.44970000       1.99430000      -0.84110000
H       -0.32640000       2.01270000       0.92490000
H       -1.03540000      -0.23320000       0.12890000
H       -0.12520000      -0.29510000      -2.11810000
H        1.51550000      -0.11490000      -1.53640000
H        1.27400000      -3.61480000      -0.16000000
H        1.11320000      -2.60690000       1.98990000
H        2.76000000      -0.67740000       2.19150000
H        2.81410000      -0.57020000       0.37340000
H        0.29940000      -0.25580000       2.19220000
