14
Properties=species:S:1:pos:R:3 gdb_49847=T pbc="F F F"
O       -0.16320000       0.17530000      -0.06660000
C       -0.06600000       1.36910000       0.05330000
C        1.27160000       2.08520000      -0.05540000
N        2.37780000       1.23480000      -0.49360000
C        2.63360000       1.90840000      -1.66050000
O        3.36950000       1.72990000      -2.58540000
C        1.55350000       2.99940000      -1.28860000
C        0.47810000       3.16320000      -2.32320000
O       -0.63080000       2.69790000      -2.23280000
H       -0.92000000       2.01170000       0.34040000
H        1.45680000       2.59390000       0.90070000
H        2.52210000       0.25660000      -0.28380000
H        2.01510000       3.96500000      -1.06390000
H        0.79210000       3.74110000      -3.21650000
