23
Properties=species:S:1:pos:R:3 gdb_109787=T pbc="F F F"
C       -0.04450000       1.52210000      -0.26450000
C        0.00930000       0.04870000       0.15900000
C       -1.35820000      -0.60450000       0.15290000
C       -1.87490000      -1.32710000      -1.07670000
O       -1.02430000      -1.51590000      -2.17410000
C       -1.54180000      -2.11710000       0.16070000
C       -0.38690000      -3.07000000       0.18230000
C        0.06140000      -3.68490000       1.48700000
C       -0.63230000      -4.53500000       0.45150000
H        0.94900000       1.98070000      -0.23930000
H       -0.43570000       1.63030000      -1.28280000
H       -0.69700000       2.10240000       0.39730000
H        0.68180000      -0.49680000      -0.50920000
H        0.44490000      -0.02620000       1.16310000
H       -2.11060000      -0.04780000       0.70900000
H       -2.92610000      -1.21000000      -1.34100000
H       -0.95120000      -0.67750000      -2.64190000
H       -2.40130000      -2.46980000       0.72680000
H        0.39090000      -2.85460000      -0.54020000
H        1.12340000      -3.83230000       1.65170000
H       -0.49360000      -3.42710000       2.38330000
H       -1.65130000      -4.84910000       0.65390000
H       -0.04640000      -5.26380000      -0.09760000
