17
Properties=species:S:1:pos:R:3 gdb_71374=T pbc="F F F"
C       -0.00160000       1.46530000       0.05010000
C       -0.03770000      -0.03310000      -0.00080000
C       -1.25170000      -0.94100000      -0.23920000
C       -0.34300000      -2.10550000       0.24540000
C        0.59950000      -1.03550000       0.91790000
C        1.21370000      -0.82190000      -0.48540000
O        2.40900000      -0.20330000      -0.74770000
C        0.74490000      -2.19930000      -0.85360000
O        1.17210000      -3.08590000      -1.53700000
H        1.00490000       1.82380000       0.28440000
H       -0.30210000       1.90040000      -0.91040000
H       -0.68620000       1.84620000       0.81520000
H       -2.05560000      -0.72060000       0.47030000
H       -1.66220000      -1.01350000      -1.25340000
H       -0.73530000      -3.00600000       0.70800000
H        1.11150000      -0.98760000       1.86690000
H        2.33310000       0.28610000      -1.57480000
