18
Properties=species:S:1:pos:R:3 gdb_65642=T pbc="F F F"
C        0.31520000       1.55660000      -0.23130000
C        0.07840000       0.06330000      -0.07410000
N        0.99100000      -0.80280000      -0.90840000
C        1.33750000      -1.63420000       0.27430000
C        2.60900000      -1.11950000       0.96740000
O        1.84350000      -0.12670000       1.70320000
C        0.59860000      -0.64510000       1.20430000
C       -1.36190000      -0.30630000      -0.37070000
O       -2.14200000      -0.78300000       0.41390000
H        1.35750000       1.78030000       0.00460000
H        0.11040000       1.87560000      -1.25870000
H       -0.32890000       2.12900000       0.44490000
H        0.51870000      -1.30800000      -1.65320000
H        1.15710000      -2.70640000       0.20220000
H        3.08160000      -1.83360000       1.65350000
H        3.35840000      -0.67110000       0.30790000
H       -0.12750000      -0.87580000       1.98340000
H       -1.65120000      -0.12870000      -1.43570000
