14
Properties=species:S:1:pos:R:3 gdb_6243=T pbc="F F F"
C        0.08760000       1.49270000      -0.15420000
C        0.08320000       0.01350000       0.21080000
O        0.08930000      -0.39370000       1.34330000
N        0.07110000      -0.80820000      -0.92190000
C        0.06340000      -2.20560000      -0.99700000
N        0.06700000      -2.96240000       0.02880000
C        0.05120000      -2.67710000      -2.36140000
C        0.04090000      -3.09210000      -3.49060000
H        0.96820000       1.74610000      -0.75420000
H       -0.80180000       1.75520000      -0.73700000
H        0.09940000       2.07460000       0.76630000
H        0.06720000      -0.34090000      -1.81470000
H        0.05980000      -3.93660000      -0.27020000
H        0.03170000      -3.47330000      -4.48270000
