19
Properties=species:S:1:pos:R:3 gdb_112462=T pbc="F F F"
C        0.11900000       1.52100000       0.05120000
C        0.22520000      -0.00550000       0.04980000
C        0.57440000      -0.59030000      -1.32840000
O        1.81930000      -0.00570000      -1.76450000
C        2.96810000      -0.68230000      -1.98620000
O        3.95240000      -0.06890000      -2.29800000
C        2.97380000      -2.19650000      -1.84300000
C        1.64380000      -2.82050000      -1.55880000
C        0.56350000      -2.08560000      -1.33150000
H        1.05830000       1.97620000      -0.27110000
H       -0.67040000       1.86190000      -0.62810000
H       -0.11820000       1.89280000       1.05210000
H        0.98610000      -0.34010000       0.76510000
H       -0.72430000      -0.45180000       0.37020000
H       -0.16830000      -0.22340000      -2.05220000
H        3.41760000      -2.59520000      -2.76330000
H        3.70120000      -2.43560000      -1.05570000
H        1.59180000      -3.90550000      -1.54470000
H       -0.39870000      -2.54400000      -1.12220000
