14
Properties=species:S:1:pos:R:3 gdb_27436=T pbc="F F F"
N        0.04680000       1.31170000       0.33980000
C       -0.02610000      -0.01130000       0.01240000
C       -1.24730000      -0.63470000      -0.15000000
C       -1.50380000      -2.04740000      -0.25870000
O       -2.57430000      -2.53220000      -0.60540000
C       -0.45430000      -2.97190000       0.28770000
N        0.82450000      -2.88100000       0.26130000
C        1.51610000      -1.79580000      -0.21440000
N        1.22240000      -0.54200000      -0.22910000
H        0.91590000       1.77820000       0.13800000
H       -0.79000000       1.86960000       0.34530000
H       -2.13950000      -0.01400000      -0.17450000
H       -0.88030000      -3.86820000       0.74610000
H        2.52400000      -2.04850000      -0.54320000
