18
Properties=species:S:1:pos:R:3 gdb_18367=T pbc="F F F"
C        0.11410000       1.56680000       0.02350000
C        0.18030000       0.05180000      -0.02520000
O        1.07730000      -0.34980000      -1.06460000
C        1.42070000      -1.70490000      -0.81430000
C        1.56830000      -1.81530000       0.70430000
C        2.75330000      -1.04580000       1.32290000
O        1.89200000       0.01790000       1.78210000
C        0.72320000      -0.62900000       1.23860000
H        1.08380000       1.97050000       0.32110000
H       -0.15510000       1.96490000      -0.95820000
H       -0.63880000       1.89290000       0.74760000
H       -0.82110000      -0.37190000      -0.22530000
H        0.62760000      -2.38390000      -1.16990000
H        2.33840000      -1.92750000      -1.36680000
H        1.38000000      -2.81300000       1.09950000
H        3.25560000      -1.54660000       2.15920000
H        3.50570000      -0.68700000       0.60980000
H       -0.04120000      -0.80120000       2.00310000
