19
Properties=species:S:1:pos:R:3 gdb_72691=T pbc="F F F"
O       -0.16350000       1.36310000      -0.18530000
C       -0.08010000      -0.01010000      -0.02110000
C        0.57400000      -0.86770000      -1.11950000
C       -0.56390000      -1.92270000      -0.99880000
C       -1.35140000      -1.04510000       0.00500000
C       -1.04810000      -1.29950000       1.49650000
C        0.22790000      -0.41130000       1.43700000
C       -2.69140000      -0.56040000      -0.40580000
O       -3.11540000      -0.58570000      -1.53950000
H       -0.34640000       1.55550000      -1.11210000
H        0.55780000      -0.35840000      -2.08920000
H        1.59890000      -1.19600000      -0.92300000
H       -1.11840000      -2.08040000      -1.92470000
H       -0.25750000      -2.89020000      -0.59440000
H       -1.81690000      -0.87880000       2.15220000
H       -0.90160000      -2.34790000       1.76850000
H        1.18160000      -0.92840000       1.57230000
H        0.20000000       0.45210000       2.10410000
H       -3.29000000      -0.09650000       0.41240000
