19
Properties=species:S:1:pos:R:3 gdb_31484=T pbc="F F F"
C        0.06380000       1.44090000       0.73080000
C       -0.01110000       0.04390000       0.23520000
C       -0.98920000      -0.75510000      -0.26120000
C       -2.43510000      -0.47050000      -0.49300000
N       -0.43960000      -2.00550000      -0.56440000
C        0.80920000      -1.90580000      -0.24590000
C        1.88150000      -2.95280000      -0.36020000
N        1.43440000      -4.22990000      -0.89980000
O        1.15600000      -0.69180000       0.24890000
H        0.76660000       2.04100000       0.14140000
H       -0.91920000       1.91290000       0.66850000
H        0.39430000       1.48140000       1.77510000
H       -2.69480000      -0.59960000      -1.54930000
H       -3.06600000      -1.15900000       0.07960000
H       -2.69370000       0.55060000      -0.20130000
H        2.69400000      -2.56200000      -0.98590000
H        2.32550000      -3.11570000       0.63020000
H        0.67040000      -4.57520000      -0.32460000
H        1.01140000      -4.06700000      -1.80990000
