16
Properties=species:S:1:pos:R:3 gdb_6069=T pbc="F F F"
C       -0.28830000       1.23050000      -0.05750000
C       -0.03280000      -0.25920000      -0.16320000
O       -0.47860000      -1.06500000       0.61420000
C        0.83790000      -0.68730000      -1.34870000
O        0.97350000      -2.09590000      -1.42280000
C       -0.10670000      -2.75340000      -1.92060000
C        0.08490000      -4.24280000      -1.80740000
O       -1.06560000      -2.19250000      -2.38330000
H        0.63500000       1.80600000      -0.18360000
H       -0.97160000       1.53700000      -0.85820000
H       -0.74370000       1.45910000       0.90650000
H        0.41390000      -0.28320000      -2.27400000
H        1.84860000      -0.28660000      -1.21980000
H       -0.69230000      -4.75420000      -2.37380000
H        1.07560000      -4.53310000      -2.16500000
H        0.01780000      -4.52900000      -0.75320000
