19
Properties=species:S:1:pos:R:3 gdb_90567=T pbc="F F F"
C       -0.36070000       1.82060000       1.33700000
N       -0.16240000       0.41750000       1.02140000
C        0.28690000      -0.01640000      -0.32040000
C        1.32050000      -0.94820000       0.32810000
C        2.27880000      -0.16640000       1.17940000
N        2.82000000       1.08720000       0.74410000
C        3.28330000       2.02760000       1.61590000
O        3.18100000       1.96760000       2.82080000
C        0.86540000      -0.37240000       1.67300000
H        0.46940000       2.47720000       1.03800000
H       -1.27400000       2.17620000       0.84660000
H       -0.49960000       1.92340000       2.41730000
H       -0.49890000      -0.54050000      -0.87490000
H        0.69520000       0.78070000      -0.95810000
H        1.50130000      -1.97540000       0.04130000
H        2.98780000      -0.79480000       1.71750000
H        3.06370000       1.18930000      -0.23010000
H        3.76180000       2.87700000       1.08620000
H        0.67440000      -0.85520000       2.62600000
