17
Properties=species:S:1:pos:R:3 gdb_69814=T pbc="F F F"
C       -0.09720000       1.51700000       0.02790000
C        0.04920000       0.01380000      -0.00140000
O       -0.69040000      -0.67860000       1.03090000
C        0.72630000      -0.71060000       1.10480000
C        1.39790000      -2.02940000       0.83260000
O        0.55720000      -3.13050000       0.53210000
C        1.34780000      -2.58210000      -0.54150000
C        0.65660000      -1.80150000      -1.59020000
C        0.06430000      -0.62770000      -1.34150000
H        0.70760000       2.00000000      -0.53620000
H       -1.05030000       1.81640000      -0.42200000
H       -0.07660000       1.88570000       1.05600000
H        1.16100000      -0.12390000       1.91460000
H        2.25730000      -2.25960000       1.46190000
H        2.14320000      -3.24800000      -0.87240000
H        0.66200000      -2.20530000      -2.59840000
H       -0.41000000      -0.07850000      -2.15060000
