16
Properties=species:S:1:pos:R:3 gdb_37212=T pbc="F F F"
C        0.08190000       1.48240000       0.19210000
C        1.54350000       1.80040000      -0.02280000
C        2.16790000       0.73940000      -0.55780000
C        3.22440000       0.06450000       0.29430000
O        2.90570000       0.25050000       1.70210000
C        2.38030000      -0.89340000       1.03530000
C        0.97590000      -0.98370000       0.37430000
C        1.10400000      -0.29790000      -0.93530000
N       -0.04650000       0.04080000      -0.11170000
H       -0.18630000       1.70510000       1.23150000
H       -0.63290000       2.01190000      -0.45190000
H        2.04410000       2.57690000       0.54410000
H        4.27370000      -0.08400000       0.06500000
H        2.75200000      -1.84580000       1.40860000
H        0.49170000      -1.94820000       0.48720000
H        0.98100000      -0.72460000      -1.92680000
