17
Properties=species:S:1:pos:R:3 gdb_69693=T pbc="F F F"
C       -0.22660000       1.34760000       0.08430000
C        0.10380000      -0.10040000      -0.08070000
N       -0.77700000      -1.20420000       0.32340000
C        0.60940000      -1.13480000       0.84970000
C        1.57440000      -1.70070000      -0.25100000
C        1.02920000      -0.68130000      -1.22340000
N        0.86440000      -2.09270000      -1.42690000
C       -0.28500000      -2.88130000      -1.53140000
O       -0.38160000      -3.98620000      -1.06480000
H        0.66990000       1.96780000      -0.02260000
H       -0.95150000       1.67620000      -0.66970000
H       -0.65310000       1.54370000       1.07350000
H       -1.41110000      -0.87730000       1.05080000
H        0.80780000      -1.09570000       1.91220000
H        2.59220000      -2.02450000      -0.07290000
H        1.54250000      -0.07880000      -1.96400000
H       -1.02850000      -2.42260000      -2.20910000
