19
Properties=species:S:1:pos:R:3 gdb_106077=T pbc="F F F"
C        0.28600000       1.31800000      -0.28570000
O        0.10590000      -0.06000000       0.00420000
C       -1.21290000      -0.44040000       0.02180000
C       -1.77530000      -1.81220000       0.03660000
C       -2.30860000      -1.65080000       1.50960000
C       -2.26590000      -0.16010000       1.12740000
C       -3.39190000       0.36540000       0.60440000
C       -3.35290000       0.26380000      -0.92000000
C       -2.17150000      -0.70960000      -1.07540000
H        1.35880000       1.51590000      -0.23550000
H       -0.07910000       1.56730000      -1.29180000
H       -0.23290000       1.95190000       0.44560000
H       -1.28750000      -2.70880000      -0.33850000
H       -3.28690000      -2.05690000       1.78170000
H       -1.54140000      -2.00910000       2.20450000
H       -4.34850000       0.30830000       1.11850000
H       -4.31920000      -0.13980000      -1.24730000
H       -3.18390000       1.18200000      -1.50140000
H       -1.80720000      -0.99390000      -2.06090000
