22
Properties=species:S:1:pos:R:3 gdb_64380=T pbc="F F F"
C        0.34080000       1.52200000      -0.23470000
C        0.04520000       0.02540000      -0.03550000
C       -1.45850000      -0.18620000       0.16340000
C        0.61780000      -0.81040000      -1.20390000
C        2.13350000      -0.94720000      -0.93190000
C        2.31400000      -0.74540000       0.59920000
C        0.87350000      -0.56700000       1.15200000
C        0.80570000       0.20890000       2.38510000
N        0.74720000       0.83270000       3.35720000
H        1.40390000       1.71700000      -0.40540000
H       -0.20780000       1.89880000      -1.10390000
H        0.03230000       2.10500000       0.63810000
H       -2.01950000       0.17120000      -0.70650000
H       -1.69620000      -1.24670000       0.30190000
H       -1.82250000       0.35970000       1.04010000
H        0.14440000      -1.79950000      -1.20170000
H        0.40020000      -0.35570000      -2.17470000
H        2.51110000      -1.91850000      -1.26060000
H        2.70020000      -0.19130000      -1.48200000
H        2.81500000      -1.58650000       1.08350000
H        2.91150000       0.14350000       0.81410000
H        0.45700000      -1.55770000       1.37390000
