16
Properties=species:S:1:pos:R:3 gdb_23465=T pbc="F F F"
O       -0.07140000       1.32710000      -0.24440000
N        0.00890000      -0.07320000      -0.25830000
C       -1.10290000      -0.60550000       0.07840000
C       -2.32980000       0.16360000       0.50780000
N       -3.43990000      -0.60760000       1.04580000
C       -3.37150000      -1.87040000       1.10090000
N       -2.28880000      -2.72850000       0.77260000
C       -2.07230000      -2.91180000      -0.67600000
C       -1.13030000      -2.08690000       0.14110000
H        0.82470000       1.58590000      -0.48380000
H       -2.02680000       0.91260000       1.24990000
H       -2.70820000       0.75640000      -0.33540000
H       -4.23700000      -2.42410000       1.46620000
H       -1.77250000      -3.90900000      -0.98350000
H       -2.75290000      -2.39700000      -1.34860000
H       -0.17860000      -2.54240000       0.39870000
