18
Properties=species:S:1:pos:R:3 gdb_119759=T pbc="F F F"
C        0.02200000       1.60700000       0.09430000
N       -0.01680000       0.15040000       0.11340000
H        0.64800000      -0.21750000      -0.55980000
H        0.07280000      -2.50020000       1.46140000
C       -1.34030000      -0.39490000      -0.18810000
C       -1.33570000      -1.88470000      -0.09540000
C       -0.95390000      -2.67760000       1.12560000
C       -1.11600000      -4.12140000       0.65690000
O       -0.94050000      -5.14750000       1.23730000
O       -1.53710000      -4.09040000      -0.66550000
C       -1.64150000      -2.76380000      -1.04790000
H       -1.96310000      -2.61810000      -2.06900000
H        1.04610000       1.94780000       0.27000000
H       -0.33530000       2.05890000      -0.84850000
H       -0.60330000       1.99880000       0.90470000
H       -2.03640000       0.02260000       0.55440000
H       -1.72700000      -0.08850000      -1.17840000
H       -1.60110000      -2.49760000       1.99220000
