23
Properties=species:S:1:pos:R:3 gdb_96117=T pbc="F F F"
C       -0.11190000       1.50830000       0.03370000
C        0.00100000      -0.02400000       0.00860000
C        0.68790000      -0.49740000      -1.28500000
C        0.91640000      -2.01070000      -1.28970000
C        1.88260000      -2.43690000      -0.17390000
C        1.62740000      -1.71140000       1.13410000
O        2.14030000      -0.37260000       1.23990000
C        0.71380000      -0.55540000       1.25220000
C        0.05620000      -0.27560000       2.58720000
H        0.88050000       1.96250000       0.12230000
H       -0.56840000       1.87260000      -0.89230000
H       -0.72480000       1.86660000       0.86550000
H       -1.01500000      -0.44680000       0.02450000
H        0.06880000      -0.20300000      -2.13980000
H        1.64760000       0.02270000      -1.39160000
H       -0.04830000      -2.51660000      -1.14890000
H        1.30030000      -2.34040000      -2.26110000
H        1.81310000      -3.51710000      -0.00390000
H        2.91910000      -2.23420000      -0.47090000
H        1.79670000      -2.30140000       2.03680000
H       -0.00110000       0.79910000       2.78380000
H       -0.96310000      -0.67680000       2.61020000
H        0.62770000      -0.73390000       3.39820000
