14
Properties=species:S:1:pos:R:3 gdb_16479=T pbc="F F F"
O       -0.08820000       1.35320000       0.08400000
C        0.07310000      -0.00610000       0.05530000
C       -0.19830000      -0.84960000      -1.21250000
C        0.49020000      -2.20500000      -1.03350000
C        0.00660000      -2.12100000       0.44410000
C       -1.06300000      -1.05140000      -0.00550000
C        0.78890000      -0.91120000       1.01790000
O        1.47930000      -0.74520000       1.98240000
H        0.60320000       1.76140000      -0.44890000
H       -0.45080000      -0.32180000      -2.12470000
H       -0.02410000      -2.99300000      -1.59050000
H        1.57080000      -2.27370000      -1.20230000
H       -0.17040000      -2.99880000       1.05820000
H       -2.10690000      -0.90090000       0.21990000
