27
Properties=species:S:1:pos:R:3 gdb_104444=T pbc="F F F"
C        0.19430000       1.54250000      -0.01930000
C       -0.03330000       0.02580000      -0.01870000
C       -1.49940000      -0.46710000       0.07680000
C       -2.13660000       0.04780000       1.38270000
C       -2.30620000       0.01410000      -1.15600000
C       -3.68930000      -0.64170000      -1.29250000
C       -3.58760000      -2.17200000      -1.30610000
C       -2.84470000      -2.68230000      -0.06480000
C       -1.46690000      -2.01750000       0.07420000
H        1.26310000       1.76390000      -0.10440000
H       -0.30700000       2.03260000      -0.85970000
H       -0.16190000       2.01270000       0.90230000
H        0.40810000      -0.39530000      -0.93180000
H        0.52860000      -0.41430000       0.81670000
H       -2.22570000       1.13850000       1.38210000
H       -3.13950000      -0.35620000       1.54160000
H       -1.52900000      -0.23740000       2.24920000
H       -2.41820000       1.10380000      -1.12690000
H       -1.72300000      -0.21210000      -2.06040000
H       -4.33670000      -0.32740000      -0.46350000
H       -4.17380000      -0.28440000      -2.20870000
H       -4.58490000      -2.62220000      -1.36850000
H       -3.04480000      -2.48950000      -2.20780000
H       -3.45180000      -2.48650000       0.82840000
H       -2.72160000      -3.77050000      -0.11460000
H       -0.83860000      -2.34630000      -0.76580000
H       -0.96750000      -2.37190000       0.98500000
