17
Properties=species:S:1:pos:R:3 gdb_15119=T pbc="F F F"
N       -0.11570000      -0.94340000      -0.60660000
C       -0.00910000       0.12110000      -0.17030000
C        0.14720000       1.46730000       0.37050000
C        1.49650000       2.08900000      -0.00980000
O        1.52190000       3.37580000       0.56880000
C        2.71010000       4.06700000       0.32280000
C        2.86930000       4.81760000      -0.97490000
C        2.62230000       5.55650000       0.32650000
H       -0.66260000       2.10440000       0.00000000
H        0.05780000       1.43450000       1.46130000
H        2.31980000       1.46640000       0.37180000
H        1.59910000       2.14250000      -1.10300000
H        3.59400000       3.59550000       0.75360000
H        3.85140000       4.86860000      -1.43140000
H        2.04250000       4.76980000      -1.67480000
H        1.63540000       5.98010000       0.47270000
H        3.43230000       6.12030000       0.77460000
