15
Properties=species:S:1:pos:R:3 gdb_132426=T pbc="F F F"
C        0.07150000       1.50520000       0.04230000
C       -0.05110000       0.01650000      -0.05600000
C        0.08040000      -0.69860000      -1.20260000
N       -0.04490000      -2.07410000      -1.22350000
C       -0.29050000      -2.66920000      -0.12730000
F       -0.41550000      -3.99430000      -0.12210000
C       -0.46100000      -2.04940000       1.19290000
N       -0.70790000      -2.60580000       2.31820000
N       -0.31630000      -0.66860000       1.10490000
H        0.88170000       1.79270000       0.72270000
H        0.28140000       1.93440000      -0.93860000
H       -0.85320000       1.95540000       0.42250000
H        0.28920000      -0.21520000      -2.14710000
H       -0.78070000      -3.61300000       2.19420000
H       -0.42120000      -0.17280000       1.97930000
