18
Properties=species:S:1:pos:R:3 gdb_53938=T pbc="F F F"
C        0.33230000       0.70420000      -1.05190000
C       -0.10810000       0.14940000       0.29050000
O        0.42530000       0.47240000       1.32110000
C       -1.31660000      -0.83340000       0.28760000
C       -1.46860000      -1.51310000       1.64390000
O       -2.51580000      -0.07790000       0.06380000
C       -1.10250000      -1.91130000      -0.79270000
N       -2.20950000      -2.20770000      -1.52050000
O       -0.01440000      -2.43620000      -0.94680000
H        0.88900000       1.62970000      -0.90290000
H        0.98130000      -0.04190000      -1.52180000
H       -0.50100000       0.87480000      -1.74250000
H       -1.50100000      -0.75730000       2.42950000
H       -2.39060000      -2.10020000       1.66240000
H       -0.61790000      -2.17250000       1.82390000
H       -2.38530000       0.49340000      -0.70180000
H       -3.09400000      -1.80380000      -1.26020000
H       -2.17480000      -2.98470000      -2.15980000
