15
Properties=species:S:1:pos:R:3 gdb_129803=T pbc="F F F"
N        0.05040000       1.39590000       0.18360000
C       -0.07850000       0.02930000       0.03940000
C       -1.11620000      -0.84920000       0.02030000
O       -2.48110000      -0.86010000       0.06830000
C       -2.85060000      -2.22180000      -0.29240000
C       -1.60660000      -3.14600000      -0.07640000
C       -0.51890000      -2.11190000      -0.07380000
N        0.78670000      -2.07990000      -0.11200000
O        1.07250000      -0.68660000      -0.03400000
H        0.91440000       1.75370000      -0.20240000
H       -0.75050000       1.91140000      -0.15430000
H       -3.71010000      -2.49990000       0.31990000
H       -3.14840000      -2.22500000      -1.34770000
H       -1.65160000      -3.67270000       0.88270000
H       -1.51520000      -3.89360000      -0.86720000
