19
Properties=species:S:1:pos:R:3 gdb_81572=T pbc="F F F"
C       -0.27110000       1.49140000       0.09170000
N       -0.10450000       0.04520000       0.00050000
C       -1.10540000      -0.88490000       0.65360000
C       -0.01900000      -1.98180000       0.48280000
C        0.67100000      -0.71520000       1.06340000
C       -0.50390000      -0.62700000       2.08210000
C       -0.72650000       0.60190000       2.94470000
N       -2.03980000       0.90740000       3.17560000
O        0.18940000       1.20400000       3.47190000
H        0.68280000       1.96070000      -0.16980000
H       -1.00500000       1.79470000      -0.66340000
H       -0.58790000       1.90080000       1.05760000
H       -2.15260000      -0.92020000       0.34220000
H       -0.08390000      -2.85940000       1.12750000
H        0.23800000      -2.21210000      -0.54980000
H        1.72990000      -0.53600000       1.24820000
H       -0.57810000      -1.49210000       2.75350000
H       -2.78460000       0.47430000       2.65860000
H       -2.24970000       1.70970000       3.74710000
