15
Properties=species:S:1:pos:R:3 gdb_43334=T pbc="F F F"
O        0.02780000       0.75250000       1.59040000
C       -0.00050000       1.47940000       0.60970000
C       -1.31140000       1.82900000       0.00900000
C       -1.63810000       2.81290000      -0.83890000
C       -0.80450000       3.93810000      -1.29730000
O       -0.02570000       4.63460000      -0.32470000
C        0.69390000       3.93700000      -1.34120000
C        1.55130000       2.81070000      -0.93230000
C        1.27340000       1.82720000      -0.06680000
H       -2.09230000       1.14720000       0.33490000
H       -2.66200000       2.84160000      -1.20430000
H       -1.29330000       4.59950000      -2.01270000
H        1.14080000       4.59790000      -2.08400000
H        2.55210000       2.83800000      -1.35710000
H        2.07120000       1.14430000       0.21290000
