15
Properties=species:S:1:pos:R:3 gdb_27898=T pbc="F F F"
C        0.02280000       1.43440000       0.01340000
C        0.04970000      -0.06810000       0.01040000
N        0.10910000      -0.67040000      -1.18190000
C        0.12910000      -2.00380000      -1.17400000
O        0.18870000      -2.62190000      -2.36330000
C        0.09210000      -2.76680000      -0.01230000
C        0.03180000      -2.02700000       1.16030000
O       -0.00760000      -2.66200000       2.34130000
N        0.01010000      -0.69030000       1.19050000
H        0.89200000       1.82860000      -0.52200000
H       -0.86590000       1.79580000      -0.51410000
H        0.01710000       1.81380000       1.03510000
H        0.20580000      -1.91850000      -3.02800000
H        0.10960000      -3.84680000      -0.02210000
H       -0.04630000      -1.96800000       3.01490000
