25
Properties=species:S:1:pos:R:3 gdb_120750=T pbc="F F F"
C        0.00130000       1.54400000      -0.19510000
C        0.17220000       0.02470000      -0.11530000
C        0.46140000      -0.47440000       1.30710000
C        0.62930000      -1.97850000       1.38000000
C        1.97450000      -2.62590000       1.13810000
C        1.35110000      -2.67400000       2.51470000
C        1.95470000      -1.93760000       3.67000000
C        1.28690000      -1.97060000       5.02410000
C        2.58610000      -2.70660000       4.80560000
H        0.90690000       2.06240000       0.13980000
H       -0.20880000       1.87060000      -1.21850000
H       -0.82520000       1.88400000       0.43900000
H       -0.73440000      -0.46700000      -0.49210000
H        0.98620000      -0.29280000      -0.77920000
H        1.36410000       0.02320000       1.68220000
H       -0.35490000      -0.16070000       1.97290000
H       -0.22530000      -2.52500000       0.98520000
H        2.03030000      -3.53690000       0.55190000
H        2.82540000      -1.96320000       1.00560000
H        0.92850000      -3.63500000       2.80200000
H        2.44650000      -1.00470000       3.41140000
H        1.29740000      -1.07130000       5.63040000
H        0.38150000      -2.56060000       5.12350000
H        2.55340000      -3.79050000       4.75890000
H        3.48730000      -2.31110000       5.26130000
