15
Properties=species:S:1:pos:R:3 gdb_31438=T pbc="F F F"
O        0.05240000       1.43360000       0.38060000
C        0.02760000       0.09810000      -0.06040000
C       -1.37850000      -0.46430000      -0.09640000
C       -1.79910000      -1.37200000      -1.01900000
C       -3.14060000      -1.91130000      -0.97820000
O       -3.65560000      -2.72290000      -1.71990000
N       -3.88430000      -1.35810000       0.10000000
C       -3.38940000      -0.45010000       0.96850000
N       -2.18090000       0.01370000       0.91990000
H       -0.63310000       1.49520000       1.06050000
H        0.47590000       0.05800000      -1.05800000
H        0.63360000      -0.55470000       0.59420000
H       -1.15180000      -1.72000000      -1.81470000
H       -4.83770000      -1.68670000       0.18310000
H       -4.06910000      -0.10720000       1.74490000
