17
Properties=species:S:1:pos:R:3 gdb_52513=T pbc="F F F"
C       -0.10240000       1.01160000      -1.12880000
C       -0.03210000      -0.26010000      -0.43160000
C        0.01670000      -1.31980000       0.14390000
C        0.09080000      -2.57370000       0.85660000
O       -0.73270000      -2.90730000       1.67850000
C        1.31780000      -3.45910000       0.52720000
C        1.35740000      -4.71050000       1.41750000
C        1.32850000      -3.78600000      -0.89630000
C        1.31510000      -4.08200000      -2.06110000
H        0.86420000       1.52610000      -1.10480000
H       -0.36950000       0.85780000      -2.18010000
H       -0.85300000       1.67120000      -0.68170000
H        2.19780000      -2.83270000       0.73720000
H        0.47570000      -5.33030000       1.24430000
H        2.25100000      -5.29820000       1.19560000
H        1.36730000      -4.42350000       2.47120000
H        1.31050000      -4.33740000      -3.09180000
