19
Properties=species:S:1:pos:R:3 gdb_5301=T pbc="F F F"
C        0.03630000       1.59370000       0.12920000
C       -0.05020000       0.06820000      -0.00510000
C        0.80970000      -0.62380000       1.07330000
C       -1.47550000      -0.41080000       0.03050000
C       -2.64850000       0.19990000       0.42250000
C       -3.70780000      -0.74000000       0.27050000
C       -3.15710000      -1.90170000      -0.21200000
N       -1.80650000      -1.69220000      -0.35160000
H        1.07550000       1.92710000       0.04960000
H       -0.54690000       2.09530000      -0.64790000
H       -0.34430000       1.92190000       1.10240000
H        0.37320000      -0.20240000      -0.98480000
H        0.77650000      -1.71390000       0.97900000
H        1.85680000      -0.31140000       0.99720000
H        0.44650000      -0.36790000       2.07410000
H       -2.73960000       1.21420000       0.77880000
H       -4.75240000      -0.57670000       0.48670000
H       -3.60230000      -2.84900000      -0.47050000
H       -1.15190000      -2.37090000      -0.69990000
