21
Properties=species:S:1:pos:R:3 gdb_122124=T pbc="F F F"
C        0.10000000       1.30660000       0.20630000
O        0.01410000      -0.09650000       0.14440000
C       -1.31270000      -0.55860000       0.02370000
C       -1.27180000      -2.07970000      -0.07130000
C       -2.66990000      -2.69580000      -0.18760000
O       -3.27130000      -2.21670000      -1.37410000
C       -4.66440000      -2.45050000      -1.43720000
C       -2.53680000      -4.21760000      -0.23040000
O       -2.46330000      -4.92300000       0.74030000
H        1.15800000       1.56680000       0.28890000
H       -0.31430000       1.78210000      -0.69700000
H       -0.43440000       1.71160000       1.08070000
H       -1.91150000      -0.24770000       0.89850000
H       -1.79560000      -0.13610000      -0.87000000
H       -0.67220000      -2.36710000      -0.94230000
H       -0.78220000      -2.48970000       0.81750000
H       -3.27060000      -2.42870000       0.69690000
H       -5.01610000      -2.04400000      -2.38790000
H       -4.90960000      -3.52250000      -1.39980000
H       -5.19410000      -1.94880000      -0.61360000
H       -2.47740000      -4.62120000      -1.26860000
