23
Properties=species:S:1:pos:R:3 gdb_103179=T pbc="F F F"
C       -0.18720000       1.23110000       0.49680000
C       -0.08400000      -0.28010000       0.25080000
C        0.54800000      -0.66520000      -1.08840000
O       -0.12660000      -0.06730000      -2.17920000
C        2.11230000      -0.64860000      -1.17910000
C        3.01340000      -0.00160000      -0.14700000
O        2.14660000      -2.09120000      -1.09630000
C        0.72430000      -2.18590000      -1.34070000
C        0.05020000      -3.23440000      -0.48170000
H        0.78940000       1.72320000       0.45780000
H       -0.84370000       1.71590000      -0.23470000
H       -0.61680000       1.43040000       1.48270000
H        0.48460000      -0.74460000       1.06300000
H       -1.08940000      -0.71580000       0.28670000
H       -0.15320000       0.88470000      -2.03910000
H        2.39730000      -0.31570000      -2.18910000
H        2.71300000      -0.25270000       0.87370000
H        4.03820000      -0.35970000      -0.29090000
H        3.02240000       1.08780000      -0.25760000
H        0.52890000      -2.38750000      -2.40400000
H        0.21030000      -3.05200000       0.58410000
H       -1.02640000      -3.26010000      -0.68010000
H        0.46010000      -4.22080000      -0.72070000
