18
Properties=species:S:1:pos:R:3 gdb_78175=T pbc="F F F"
C       -0.25980000       1.59180000       0.05750000
C        0.08220000       0.10310000      -0.02060000
N        1.03450000      -0.22140000      -1.09190000
C        1.86850000      -1.29200000      -0.77560000
O        2.45850000      -1.97860000      -1.57590000
C        1.90020000      -1.38270000       0.72260000
C        2.21860000      -0.07730000       1.43440000
O        2.85570000       1.00500000       0.83340000
C        0.78460000      -0.45470000       1.21940000
H        0.62970000       2.18760000       0.27220000
H       -0.70620000       1.94200000      -0.87920000
H       -0.98860000       1.76270000       0.85600000
H       -0.84880000      -0.46310000      -0.17520000
H        0.75820000      -0.12870000      -2.05930000
H        2.16500000      -2.33500000       1.16210000
H        2.59150000      -0.19700000       2.44620000
H        2.61960000       1.01030000      -0.10390000
H        0.16390000      -0.70920000       2.07070000
