17
Properties=species:S:1:pos:R:3 gdb_40982=T pbc="F F F"
C        0.03150000       1.61540000       0.07930000
O        1.38140000       1.83000000      -0.31480000
C        2.00030000       0.59980000      -0.68720000
O        2.20850000       0.53080000      -2.09680000
C        3.59120000       0.65260000      -2.40810000
C        4.29470000       0.59890000      -1.08240000
C        3.39480000       0.54210000      -0.11000000
C        0.99810000      -0.45180000      -0.27370000
C       -0.12510000       0.12290000       0.13470000
H       -0.13530000       2.09740000       1.05280000
H       -0.66390000       2.07610000      -0.63940000
H        3.87880000      -0.17120000      -3.07630000
H        3.79050000       1.59450000      -2.94230000
H        5.37210000       0.62510000      -0.97970000
H        3.56640000       0.51710000       0.95740000
H        1.20880000      -1.50750000      -0.37570000
H       -1.03830000      -0.36790000       0.44690000
