16
Properties=species:S:1:pos:R:3 gdb_14404=T pbc="F F F"
C        0.05480000       1.51140000      -0.11460000
C       -0.03900000       0.02040000      -0.05150000
O        0.42870000      -0.72040000      -1.18460000
C       -0.23960000      -1.86830000      -0.58230000
C        0.67930000      -2.15810000       0.61800000
C        0.33420000      -0.81210000       1.27720000
O       -1.08840000      -0.98220000       1.55550000
C       -1.26590000      -0.88310000       0.14370000
H        1.10160000       1.83220000      -0.13520000
H       -0.43910000       1.89410000      -1.01230000
H       -0.42320000       1.95130000       0.76560000
H       -0.51060000      -2.64720000      -1.29130000
H        0.37400000      -2.99320000       1.25150000
H        1.71610000      -2.26620000       0.29460000
H        0.90750000      -0.42610000       2.11790000
H       -2.28470000      -0.74070000      -0.21210000
