20
Properties=species:S:1:pos:R:3 gdb_116371=T pbc="F F F"
C       -0.05110000       1.38290000       0.12020000
O        0.00290000      -0.02310000       0.02200000
C        0.66610000      -0.51780000      -1.13330000
C        1.20290000      -1.90130000      -0.78750000
C        2.16670000      -2.44140000      -1.83220000
O        1.59830000      -2.81400000      -3.09170000
C        0.94970000      -1.90990000      -3.87810000
N        0.18870000      -0.93840000      -3.62610000
C       -0.31160000      -0.55480000      -2.31960000
H        0.95650000       1.82700000       0.12160000
H       -0.62900000       1.84600000      -0.69220000
H       -0.54020000       1.61830000       1.06870000
H        1.51450000       0.14220000      -1.38470000
H        1.74280000      -1.83480000       0.16380000
H        0.37090000      -2.60010000      -0.64020000
H        2.96440000      -1.70780000      -2.01720000
H        2.63410000      -3.36090000      -1.47240000
H        1.13510000      -2.16930000      -4.92190000
H       -1.12820000      -1.23880000      -2.04600000
H       -0.76650000       0.43470000      -2.42820000
