15
Properties=species:S:1:pos:R:3 gdb_27319=T pbc="F F F"
C       -0.02010000       1.48220000       0.05810000
C       -0.00980000      -0.01090000      -0.03490000
N       -0.11860000      -0.63570000      -1.15120000
C       -0.10220000      -2.03070000      -1.16920000
O       -0.15970000      -2.67420000      -2.20160000
C        0.00380000      -2.71820000       0.14020000
N       -0.06780000      -4.09120000       0.09070000
C        0.13000000      -1.95610000       1.24500000
O        0.12750000      -0.58710000       1.17440000
H        0.90170000       1.84120000       0.52660000
H       -0.11480000       1.90390000      -0.94110000
H       -0.85470000       1.81830000       0.68170000
H        0.07880000      -4.43420000      -0.85060000
H        0.39810000      -4.61560000       0.81430000
H        0.23690000      -2.30500000       2.26300000
