14
Properties=species:S:1:pos:R:3 gdb_9593=T pbc="F F F"
C        0.14300000       1.48240000      -0.03030000
C        0.02810000      -0.02270000       0.07150000
O        1.23660000      -0.75870000      -0.12610000
C        0.68540000      -0.80230000       1.17970000
C        1.42030000      -0.12070000       2.29220000
O        2.29360000       0.69630000       2.14900000
C       -1.15750000      -0.60490000      -0.51580000
C       -2.15640000      -1.05750000      -1.00730000
H        1.06420000       1.82310000       0.44210000
H        0.15450000       1.77070000      -1.08530000
H       -0.71790000       1.96350000       0.44270000
H        0.21750000      -1.74780000       1.45660000
H        1.07340000      -0.43350000       3.30230000
H       -3.03420000      -1.46550000      -1.44540000
