13
Properties=species:S:1:pos:R:3 gdb_2141=T pbc="F F F"
C       -0.00770000       1.46960000       0.00470000
N        0.01250000       0.02280000      -0.01590000
C        0.06010000      -0.81370000      -1.12710000
N        0.06990000      -2.07030000      -0.89860000
C        0.02420000      -2.19900000       0.56100000
C       -0.01360000      -0.77680000       1.12710000
O       -0.05610000      -0.38130000       2.26740000
H        0.89450000       1.88760000      -0.45350000
H       -0.88680000       1.86340000      -0.51560000
H       -0.04830000       1.77140000       1.05320000
H        0.08630000      -0.37400000      -2.11980000
H       -0.85920000      -2.76420000       0.87700000
H        0.90040000      -2.74020000       0.93420000
