13
Properties=species:S:1:pos:R:3 gdb_67369=T pbc="F F F"
O        0.06240000       1.42480000       0.01680000
C        0.00900000       0.06300000       0.01840000
C        0.03600000      -0.84040000       1.31390000
O       -1.39070000      -0.62920000       1.56310000
C       -1.31780000      -0.78880000       0.11000000
C       -0.30920000      -1.95320000       0.29030000
O        0.64510000      -1.98170000      -0.78400000
C        0.87940000      -0.65590000      -0.99110000
O        1.61920000      -0.18280000      -1.80300000
H        0.68870000       1.67870000      -0.67760000
H        0.72350000      -0.83380000       2.15870000
H       -2.23560000      -0.72130000      -0.47260000
H       -0.62200000      -2.94390000       0.59940000
