19
Properties=species:S:1:pos:R:3 gdb_68672=T pbc="F F F"
C        0.03440000       1.56010000       0.07830000
C        0.02240000       0.06140000      -0.07040000
C        0.67700000      -0.66570000      -1.29110000
C       -0.37550000      -1.80380000      -1.09080000
C        0.06780000      -2.71400000       0.08100000
C        0.89010000      -1.87730000       1.08240000
O        0.45310000      -0.52190000       1.17290000
C       -1.26400000      -0.70480000      -0.48060000
O       -2.43820000      -0.48030000      -0.44370000
H        1.05090000       1.92110000       0.26120000
H       -0.35600000       2.03900000      -0.82380000
H       -0.59310000       1.85400000       0.92420000
H        0.50470000      -0.10440000      -2.21240000
H        1.73360000      -0.92660000      -1.21470000
H       -0.75040000      -2.36390000      -1.94870000
H       -0.81660000      -3.14810000       0.55870000
H        0.68010000      -3.54510000      -0.28690000
H        0.81850000      -2.28410000       2.09470000
H        1.95110000      -1.90270000       0.79810000
