21
Properties=species:S:1:pos:R:3 gdb_72172=T pbc="F F F"
O       -0.07290000       1.38940000       0.04290000
C       -0.00650000      -0.00320000      -0.02860000
C        0.25790000      -0.78840000      -1.33630000
C       -0.42070000      -1.93170000      -0.53220000
C        0.64750000      -2.20340000       0.54900000
C        0.74630000      -0.75590000       1.11710000
C       -0.22510000      -0.62590000       2.30370000
C       -1.60190000      -0.95780000       1.65140000
C       -1.30860000      -0.82370000       0.15010000
H        0.82570000       1.73660000       0.04850000
H       -0.36040000      -0.41330000      -2.15540000
H        1.28790000      -0.94040000      -1.67500000
H       -0.87010000      -2.78860000      -1.03280000
H        0.33720000      -2.92690000       1.30910000
H        1.58270000      -2.56140000       0.10840000
H        1.76300000      -0.40760000       1.31910000
H        0.03300000      -1.29280000       3.13180000
H       -0.22080000       0.40010000       2.68470000
H       -1.95080000      -1.96320000       1.91010000
H       -2.38040000      -0.25980000       1.97090000
H       -2.13830000      -0.50220000      -0.48070000
