20
Properties=species:S:1:pos:R:3 gdb_40147=T pbc="F F F"
C        0.04490000       1.47750000      -0.12990000
N        1.27630000       0.66740000      -0.00640000
C       -0.02120000       0.00580000       0.00910000
C       -0.58910000      -0.80360000       1.17770000
C       -1.47160000      -1.56240000       0.14240000
C       -0.60340000      -0.98900000      -1.00690000
C       -1.13870000      -0.61030000      -2.39800000
O       -0.17470000      -1.45340000      -3.06000000
C        0.34860000      -1.91590000      -1.79950000
H       -0.17130000       2.11160000       0.72630000
H       -0.19160000       1.92300000      -1.09310000
H        1.71630000       0.56530000      -0.91940000
H        0.16930000      -1.44310000       1.63810000
H       -1.10590000      -0.24860000       1.96370000
H       -1.50700000      -2.65160000       0.22180000
H       -2.49590000      -1.18060000       0.10670000
H       -2.17210000      -0.92680000      -2.59520000
H       -1.03180000       0.44290000      -2.69030000
H        1.42270000      -1.71040000      -1.69880000
H        0.17830000      -2.99070000      -1.65060000
