17
Properties=species:S:1:pos:R:3 gdb_88748=T pbc="F F F"
O       -0.04950000       1.35130000       0.00970000
C       -0.04900000      -0.04490000      -0.06290000
C       -0.47990000      -0.83810000       1.14090000
C       -1.39450000      -0.71850000      -0.06880000
C       -2.62590000       0.11140000       0.02830000
O       -3.45790000       0.17440000      -1.11930000
C       -4.00160000      -0.47110000       0.02810000
C       -4.21740000      -1.94910000      -0.03370000
O       -3.68440000      -2.69720000      -0.81400000
H        0.70130000       1.62140000       0.54840000
H        0.71540000      -0.47030000      -0.71200000
H       -0.01960000      -1.79820000       1.34510000
H       -0.75040000      -0.26310000       2.02120000
H       -1.50530000      -1.59190000      -0.69920000
H       -2.50960000       1.05930000       0.55220000
H       -4.78770000       0.08150000       0.54570000
H       -4.92470000      -2.32510000       0.74000000
