18
Properties=species:S:1:pos:R:3 gdb_64105=T pbc="F F F"
C       -0.02680000       1.57300000       0.00710000
C       -0.00490000       0.04880000       0.00270000
O       -1.35840000      -0.38540000       0.06390000
C        0.68190000      -0.49450000      -1.26170000
N        1.07280000      -1.88560000      -1.06980000
C        0.99140000      -2.63160000       0.07260000
O        1.17870000      -3.82020000       0.11910000
O        0.64920000      -1.94570000       1.20880000
C        0.76420000      -0.51660000       1.19610000
H        0.98510000       1.98830000       0.00800000
H       -0.55370000       1.94370000      -0.87690000
H       -0.55930000       1.93280000       0.89110000
H       -1.36560000      -1.28490000       0.41290000
H       -0.02130000      -0.41520000      -2.09740000
H        1.56380000       0.11530000      -1.49930000
H        1.30100000      -2.43940000      -1.88000000
H        1.82130000      -0.22450000       1.16270000
H        0.32990000      -0.18020000       2.14000000
