21
Properties=species:S:1:pos:R:3 gdb_92164=T pbc="F F F"
C       -0.29560000       1.54250000       0.02650000
C        0.00100000       0.04050000      -0.04790000
C        0.75400000      -0.42940000      -1.32960000
C        2.13150000      -0.90410000      -0.83300000
C        2.93230000       0.27790000      -0.19260000
C        2.36440000      -0.13000000       1.16370000
C        1.89280000      -1.47030000       0.59670000
C        0.88110000      -0.48940000       1.08840000
O        0.27060000      -0.77510000       2.31240000
H        0.61790000       2.14110000      -0.04500000
H       -0.96480000       1.85430000      -0.78210000
H       -0.78820000       1.79850000       0.97220000
H       -0.95330000      -0.49340000       0.03210000
H        0.21650000      -1.25870000      -1.80160000
H        0.84500000       0.36650000      -2.07680000
H        2.68020000      -1.51780000      -1.54730000
H        4.01030000       0.09640000      -0.23340000
H        2.73200000       1.28620000      -0.57360000
H        2.80700000       0.05580000       2.13650000
H        2.02000000      -2.47690000       0.97120000
H        0.15500000       0.05420000       2.78830000
