20
Properties=species:S:1:pos:R:3 gdb_12539=T pbc="F F F"
C        0.02070000       1.55970000       0.10870000
C        0.02380000       0.03690000       0.00740000
C        0.46170000      -0.43380000      -1.38850000
C        0.39230000      -1.91760000      -1.66060000
C        0.75880000      -2.91700000      -0.85670000
C        1.33230000      -2.81180000       0.53500000
C        0.68810000      -1.76500000       1.44790000
O        0.88910000      -0.42880000       1.03500000
H        1.02510000       1.95510000      -0.07370000
H       -0.66320000       2.00000000      -0.62290000
H       -0.28970000       1.86950000       1.10970000
H       -0.99340000      -0.34370000       0.20020000
H       -0.15720000       0.08880000      -2.12720000
H        1.49020000      -0.07760000      -1.55080000
H        0.03200000      -2.18560000      -2.65190000
H        0.67220000      -3.92840000      -1.24900000
H        1.24810000      -3.78430000       1.03560000
H        2.40920000      -2.59620000       0.47450000
H       -0.38930000      -1.97390000       1.54860000
H        1.13780000      -1.83760000       2.44460000
