19
Properties=species:S:1:pos:R:3 gdb_65049=T pbc="F F F"
C        0.25440000       0.51870000      -1.44640000
C        0.01140000      -0.05260000      -0.06390000
C        1.16740000      -0.50870000       0.74780000
N        0.44340000       0.72920000       1.10610000
C       -1.33900000      -0.72540000       0.11890000
C       -1.93380000      -0.82300000       1.48460000
N       -2.49280000       0.12750000       0.51530000
C       -1.63280000      -1.75910000      -0.84510000
C       -1.84270000      -2.63590000      -1.64070000
H        1.25280000       0.96230000      -1.51440000
H        0.17150000      -0.26000000      -2.20920000
H       -0.48380000       1.29350000      -1.68250000
H        1.04520000      -1.32510000       1.45330000
H        2.16230000      -0.42060000       0.31920000
H        0.97130000       1.54220000       0.79930000
H       -2.57150000      -1.67170000       1.71070000
H       -1.34280000      -0.42880000       2.30480000
H       -2.11680000       1.04960000       0.73620000
H       -2.04440000      -3.40640000      -2.34300000
