18
Properties=species:S:1:pos:R:3 gdb_32882=T pbc="F F F"
N       -0.03900000       1.41630000      -0.04230000
C       -0.04440000       0.01840000      -0.01680000
C       -1.10500000      -0.85120000      -0.11050000
N       -0.52360000      -2.11220000      -0.10290000
C        0.82120000      -1.95300000      -0.00630000
C        1.79240000      -3.08750000      -0.01660000
C        2.53050000      -3.21580000      -1.36260000
O        3.44620000      -4.29710000      -1.37490000
N        1.14050000      -0.67110000       0.04760000
H        0.82780000       1.77350000       0.33880000
H       -0.82790000       1.83200000       0.43420000
H       -2.16960000      -0.70870000      -0.17770000
H       -1.01500000      -2.98850000      -0.14790000
H        2.53210000      -2.92600000       0.77680000
H        1.28520000      -4.03390000       0.20120000
H        1.81000000      -3.42240000      -2.16100000
H        3.01580000      -2.25890000      -1.59860000
H        4.16960000      -4.07680000      -0.77950000
