14
Properties=species:S:1:pos:R:3 gdb_1113=T pbc="F F F"
C        0.17860000       1.21820000      -0.02620000
C       -0.34230000      -0.13690000      -0.44980000
O        0.22600000      -0.80360000      -1.29070000
C       -1.63020000      -0.60140000       0.22360000
C       -1.72770000      -2.09080000       0.60100000
N       -1.28960000      -2.95140000      -0.35500000
O       -2.22140000      -2.43070000       1.65720000
H        1.03790000       1.49980000      -0.63540000
H       -0.60950000       1.97470000      -0.11060000
H        0.46880000       1.18380000       1.03060000
H       -1.84030000      -0.02610000       1.12610000
H       -2.44010000      -0.39040000      -0.48910000
H       -0.68740000      -2.59340000      -1.08500000
H       -1.24410000      -3.92640000      -0.10420000
