18
Properties=species:S:1:pos:R:3 gdb_51113=T pbc="F F F"
O        0.15620000      -0.11800000       0.07750000
C        0.07120000       1.07180000      -0.08820000
C        1.23960000       2.03690000      -0.00360000
C        1.28370000       2.95260000      -1.19580000
C        1.93220000       2.61940000      -2.51100000
C        2.36860000       3.84690000      -1.75060000
C        1.31490000       4.96870000      -1.78840000
C        0.08480000       4.65530000      -2.54160000
N        0.25380000       4.08200000      -1.19000000
H       -0.90320000       1.55430000      -0.32290000
H        1.10670000       2.64550000       0.90190000
H        2.16420000       1.46160000       0.09490000
H        2.63360000       1.79380000      -2.43260000
H        1.43490000       2.66120000      -3.47350000
H        3.38210000       3.99470000      -1.40200000
H        1.50550000       5.95070000      -1.36750000
H       -0.68640000       5.42060000      -2.55210000
H        0.08660000       4.02480000      -3.42250000
