19
Properties=species:S:1:pos:R:3 gdb_94981=T pbc="F F F"
O       -0.17980000       1.44150000       0.09350000
C       -0.02260000       0.03970000      -0.00510000
C        0.59770000      -0.61820000       1.30130000
O       -0.18930000      -1.76250000       1.69900000
C       -1.05510000      -2.04020000       0.61610000
C       -2.61570000      -1.91510000       0.62290000
C       -2.42750000      -0.45230000       1.09010000
C       -1.33880000      -0.68460000      -0.01260000
C       -2.44450000      -1.38730000      -0.85510000
H        0.69260000       1.84760000       0.08850000
H        0.58580000      -0.22670000      -0.88200000
H        1.63490000      -0.93520000       1.13220000
H        0.57950000       0.11840000       2.11200000
H       -0.65020000      -2.83780000      -0.02130000
H       -3.35350000      -2.64110000       0.96630000
H       -3.22090000       0.25170000       0.83100000
H       -2.07130000      -0.30860000       2.10910000
H       -2.11070000      -2.10970000      -1.60550000
H       -3.25640000      -0.76170000      -1.22990000
