15
Properties=species:S:1:pos:R:3 gdb_49743=T pbc="F F F"
O       -0.79230000       0.75410000      -0.52490000
C        0.22850000       0.78930000       0.10960000
C        1.28590000       1.86770000      -0.07700000
N        2.61450000       1.21180000      -0.15090000
C        3.21420000       1.84830000      -1.08040000
C        3.32480000       1.25140000      -2.46590000
C        2.10050000       2.22940000      -2.63240000
C        1.25450000       2.63130000      -1.40770000
N        2.62190000       3.13610000      -1.56390000
H        0.47030000       0.04220000       0.89410000
H        1.17160000       2.57480000       0.76440000
H        4.12900000       1.61090000      -3.11230000
H        3.19950000       0.17150000      -2.52220000
H        1.84020000       2.64450000      -3.60450000
H        0.44580000       3.32680000      -1.61270000
