18
Properties=species:S:1:pos:R:3 gdb_99730=T pbc="F F F"
C        0.00240000       1.34800000       0.63710000
O       -0.11940000      -0.02100000       0.99120000
C        1.05420000      -0.61490000       1.45390000
C        0.70970000      -1.90400000       2.21980000
C       -0.74210000      -2.29700000       2.29760000
O        1.59640000      -2.55430000       2.73410000
C        2.07280000      -0.89110000       0.30210000
N        3.23520000      -1.45780000       0.72230000
O        1.83730000      -0.55740000      -0.83970000
H        0.67600000       1.48060000      -0.21390000
H       -0.99910000       1.68920000       0.36680000
H        0.36190000       1.94330000       1.49070000
H        1.57420000       0.03310000       2.18160000
H       -1.31960000      -1.50360000       2.78140000
H       -1.15430000      -2.39520000       1.28830000
H       -0.83580000      -3.23310000       2.84830000
H        3.23110000      -1.94520000       1.60910000
H        3.87290000      -1.76500000       0.00380000
