17
Properties=species:S:1:pos:R:3 gdb_92157=T pbc="F F F"
O        0.02100000       1.42760000      -0.05050000
C        0.04220000       0.01190000      -0.00170000
C        0.72880000      -0.54110000       1.28490000
C       -0.45650000      -0.89050000       2.16890000
O       -1.30940000       0.30840000       2.29780000
C       -2.18690000      -0.21110000       1.28980000
C       -1.36230000      -0.60590000       0.05920000
C       -1.50920000      -1.54320000       1.22630000
O       -1.90410000      -2.85470000       1.13600000
H       -0.41470000       1.71020000       0.76380000
H        0.57310000      -0.30240000      -0.90370000
H        1.30700000      -1.44840000       1.07350000
H        1.39770000       0.20580000       1.72040000
H       -0.25590000      -1.33930000       3.14380000
H       -3.21320000       0.13410000       1.27230000
H       -1.93010000      -0.80680000      -0.84210000
H       -2.37290000      -3.09170000       1.94460000
