18
Properties=species:S:1:pos:R:3 gdb_88289=T pbc="F F F"
C        0.58220000       1.62300000      -0.38050000
C        0.08590000       0.22420000      -0.13390000
O        1.05280000      -0.80490000       0.01010000
C        0.25640000      -0.51240000       1.15130000
C        0.93350000       0.11530000       2.33440000
O        2.01610000       0.66310000       2.26710000
C        0.18040000       0.04710000       3.62500000
C        0.95960000      -0.42130000       4.82010000
N        0.58620000       0.97800000       4.68630000
H        1.42920000       1.85580000       0.26540000
H        0.89930000       1.71950000      -1.42410000
H       -0.22100000       2.34690000      -0.20680000
H       -0.78720000      -0.07390000      -0.71900000
H       -0.48900000      -1.27000000       1.39850000
H       -0.88200000      -0.17290000       3.57050000
H        0.43860000      -0.97600000       5.59500000
H        1.99390000      -0.70510000       4.64690000
H        1.39120000       1.49310000       4.32570000
