21
Properties=species:S:1:pos:R:3 gdb_107063=T pbc="F F F"
C       -0.38070000       1.49100000       0.27610000
C        0.16180000       0.09020000      -0.03960000
C        0.94940000      -0.50050000       1.10070000
C        2.28920000       0.07530000       1.53240000
O        2.87840000      -0.89040000       2.39090000
C        2.33350000      -2.18780000       2.12910000
C        2.28600000      -2.96180000       3.43790000
C        0.98800000      -1.91340000       1.48560000
O        0.19770000      -0.97970000       2.23340000
H        0.42870000       2.20600000       0.45630000
H       -0.98070000       1.87180000      -0.55540000
H       -1.01230000       1.46490000       1.16890000
H       -0.67000000      -0.58360000      -0.26980000
H        0.80040000       0.12640000      -0.93140000
H        2.91100000       0.25950000       0.64010000
H        2.20200000       1.01210000       2.09290000
H        2.96020000      -2.72290000       1.39370000
H        1.59530000      -2.47410000       4.13000000
H        1.95460000      -3.99100000       3.26650000
H        3.27900000      -2.99090000       3.89400000
H        0.44730000      -2.69710000       0.96050000
