23
Properties=species:S:1:pos:R:3 gdb_53093=T pbc="F F F"
C        0.09340000       1.51690000      -0.07260000
C        0.04110000       0.06260000      -0.01940000
C        0.00300000      -1.14250000       0.01890000
C       -0.02400000      -2.57570000       0.05240000
C       -0.52260000      -3.33300000       1.28830000
C       -0.93680000      -2.60690000       2.54810000
C       -1.34240000      -3.35990000       0.02150000
C       -2.65120000      -2.60000000      -0.06440000
C       -1.33320000      -4.64890000      -0.77980000
H        0.78760000       1.85960000      -0.84830000
H       -0.88930000       1.94580000      -0.30010000
H        0.42780000       1.94440000       0.87970000
H        0.80040000      -3.04640000      -0.47810000
H        0.02950000      -4.25050000       1.48120000
H       -1.35800000      -1.62240000       2.33490000
H       -1.68050000      -3.18380000       3.10910000
H       -0.07170000      -2.45410000       3.20240000
H       -2.60390000      -1.63070000       0.43400000
H       -2.91600000      -2.41560000      -1.11180000
H       -3.46600000      -3.17950000       0.38550000
H       -2.10680000      -5.33820000      -0.42000000
H       -1.52910000      -4.45610000      -1.84120000
H       -0.36980000      -5.16310000      -0.70500000
