20
Properties=species:S:1:pos:R:3 gdb_77459=T pbc="F F F"
C       -0.06530000       1.51180000       0.04170000
N        0.13440000       0.07350000      -0.11080000
C        0.69280000      -0.55470000      -1.28030000
C       -0.05230000      -1.65760000      -1.97140000
C        1.78360000       0.32470000      -1.92420000
C        2.52650000       0.24500000      -0.56530000
O        3.63670000       0.54080000      -0.22210000
C        1.42980000      -0.57970000       0.07920000
C        1.60680000      -1.61800000       1.14560000
H        0.71660000       2.14950000      -0.39120000
H       -1.02150000       1.78010000      -0.41850000
H       -0.13170000       1.73660000       1.11000000
H       -0.76320000      -1.24910000      -2.69930000
H        0.63370000      -2.31810000      -2.51190000
H       -0.61870000      -2.24820000      -1.24680000
H        2.36800000      -0.19040000      -2.69320000
H        1.48730000       1.30570000      -2.30490000
H        1.75050000      -1.14790000       2.12450000
H        0.72190000      -2.25680000       1.20690000
H        2.48410000      -2.24030000       0.94440000
