18
Properties=species:S:1:pos:R:3 gdb_56236=T pbc="F F F"
C       -0.21640000       1.45740000       0.02210000
C        0.05750000      -0.02610000      -0.05350000
O        1.14040000      -0.53540000      -0.18640000
O       -1.09270000      -0.72770000       0.04920000
C       -0.95720000      -2.16020000      -0.00220000
C       -2.36360000      -2.73320000       0.06470000
C       -2.33950000      -4.25910000       0.10590000
N       -3.54380000      -4.85470000      -0.13380000
O       -1.33000000      -4.89590000       0.33670000
H        0.72020000       2.00400000      -0.07950000
H       -0.91050000       1.75340000      -0.76950000
H       -0.68920000       1.70290000       0.97740000
H       -0.44350000      -2.44850000      -0.92270000
H       -0.34680000      -2.50950000       0.83280000
H       -2.86710000      -2.36590000       0.96790000
H       -2.95940000      -2.38420000      -0.78630000
H       -4.38870000      -4.32800000      -0.26840000
H       -3.60440000      -5.85600000      -0.04870000
