19
Properties=species:S:1:pos:R:3 gdb_77543=T pbc="F F F"
C       -0.14020000       1.57700000      -0.03340000
C        0.03350000       0.06870000      -0.01140000
C        1.20410000      -0.64440000      -0.74000000
O        1.37230000      -0.58410000      -2.10770000
C        2.17640000      -0.15780000       0.38020000
C        0.88190000      -0.65610000       1.10630000
C        0.91560000      -1.89400000       0.14990000
C        0.62830000      -0.65660000       2.51380000
C        0.40570000      -0.64340000       3.69640000
H        0.79120000       2.12800000       0.11520000
H       -0.55890000       1.88940000      -0.99570000
H       -0.83950000       1.88780000       0.74990000
H       -0.93230000      -0.42180000      -0.17670000
H        2.16170000      -1.08220000      -2.34560000
H        3.07020000      -0.76440000       0.55010000
H        2.40440000       0.90600000       0.43910000
H       -0.03580000      -2.40680000      -0.00990000
H        1.74020000      -2.59370000       0.30980000
H        0.21210000      -0.63590000       4.74020000
