21
Properties=species:S:1:pos:R:3 gdb_72558=T pbc="F F F"
C       -0.00140000       1.51350000       0.03870000
C       -0.02780000      -0.00130000      -0.00290000
C        0.64160000      -0.65200000      -1.25790000
C        0.10570000      -2.11690000      -1.26450000
C       -0.78360000      -2.16730000      -0.00040000
C        0.13310000      -2.11740000       1.23830000
C        0.67490000      -0.67930000       1.18100000
O        1.49310000      -0.18410000       1.91290000
C       -1.38700000      -0.74400000       0.01320000
H        1.02790000       1.87640000       0.11540000
H       -0.45410000       1.94240000      -0.86130000
H       -0.54510000       1.89420000       0.90920000
H        0.32260000      -0.10510000      -2.15080000
H        1.73280000      -0.59170000      -1.21590000
H       -0.48490000      -2.31490000      -2.16350000
H        0.90740000      -2.86040000      -1.23370000
H       -1.50010000      -2.99000000       0.01030000
H       -0.43250000      -2.24390000       2.16940000
H        0.94480000      -2.85070000       1.24590000
H       -1.98140000      -0.53140000       0.90830000
H       -1.99410000      -0.52440000      -0.87090000
