19
Properties=species:S:1:pos:R:3 gdb_62472=T pbc="F F F"
C       -0.27930000       1.50960000       0.01270000
C       -0.02460000       0.00250000       0.03090000
C       -1.28760000      -0.80110000      -0.30140000
C        1.19630000      -0.43800000      -0.81540000
O        1.49310000      -0.27610000      -1.96330000
C        1.89560000      -1.10490000       0.38570000
C        0.74920000      -0.56280000       1.25260000
C        0.77350000      -0.09330000       2.63640000
O        0.12760000      -1.32380000       2.27150000
H        0.61510000       2.07470000       0.29310000
H       -0.57690000       1.82850000      -0.99100000
H       -1.08270000       1.77690000       0.70770000
H       -1.67430000      -0.50840000      -1.28190000
H       -1.09280000      -1.87750000      -0.31660000
H       -2.05940000      -0.61640000       0.45190000
H        1.91740000      -2.19800000       0.32230000
H        2.90630000      -0.74580000       0.59820000
H        1.68110000      -0.20200000       3.22910000
H        0.10490000       0.70570000       2.95390000
