20
Properties=species:S:1:pos:R:3 gdb_41212=T pbc="F F F"
C        0.21290000       1.03980000      -0.62280000
C        1.37800000       1.37430000       0.41710000
C        1.38370000       0.21390000       1.38770000
C        1.21560000      -1.09570000       0.63780000
C       -0.29500000      -0.94370000       0.72980000
C       -0.75080000      -1.43340000       2.07710000
C        0.37220000      -0.92130000       3.10420000
N        1.00580000       0.30790000       2.60790000
C       -0.78790000       0.09590000       0.03430000
H       -0.27630000       1.96860000      -0.92590000
H        0.64930000       0.61530000      -1.53480000
H        2.32850000       1.48760000      -0.11440000
H        1.15970000       2.29960000       0.95210000
H        1.61570000      -1.07250000      -0.37530000
H        1.59150000      -1.97360000       1.16310000
H       -1.72400000      -1.01570000       2.34590000
H       -0.81410000      -2.52500000       2.14840000
H       -0.09060000      -0.71070000       4.07140000
H        1.09890000      -1.72790000       3.27040000
H       -1.81280000       0.42830000       0.17240000
