12
Properties=species:S:1:pos:R:3 gdb_1835=T pbc="F F F"
O       -0.02600000       0.01960000       0.00450000
C       -0.01350000       1.21970000       0.01110000
C       -1.27410000       2.10330000       0.03230000
N       -0.73470000       3.44440000       0.03140000
C        0.63320000       3.55700000       0.01400000
O        1.25300000       4.59510000       0.01050000
C        1.20050000       2.13730000      -0.00110000
H       -1.89350000       1.88300000      -0.84690000
H       -1.86960000       1.87460000       0.92580000
H       -1.30320000       4.27650000       0.04350000
H        1.84080000       1.96060000       0.86850000
H        1.81650000       1.96950000      -0.88990000
