17
Properties=species:S:1:pos:R:3 gdb_13248=T pbc="F F F"
N       -0.39970000       1.04610000       0.21240000
C       -0.61110000      -0.17760000       0.43450000
O       -0.41580000      -1.07630000      -0.55810000
C       -0.71780000      -2.43480000      -0.26300000
C       -2.20020000      -2.73670000      -0.37980000
C       -2.64640000      -4.16680000      -0.00480000
C       -3.51120000      -3.46210000       1.05980000
O       -2.96930000      -2.16910000       0.70900000
H       -0.57920000       1.58350000       1.05820000
H       -0.95000000      -0.62970000       1.37320000
H       -0.16460000      -3.02990000      -0.99690000
H       -0.36200000      -2.70490000       0.74080000
H       -2.56920000      -2.37400000      -1.34760000
H       -3.18200000      -4.71880000      -0.77730000
H       -1.84830000      -4.79520000       0.39790000
H       -4.59290000      -3.50710000       0.88530000
H       -3.30920000      -3.72210000       2.10490000
