21
Properties=species:S:1:pos:R:3 gdb_59753=T pbc="F F F"
C        0.96750000      -0.52630000      -1.01800000
N        0.07030000       0.04650000      -0.02170000
C        0.10120000       1.50640000      -0.09890000
C       -1.27530000      -0.49340000      -0.11950000
C       -1.37550000      -2.03650000      -0.13730000
N       -2.73340000      -2.37540000       0.31850000
C       -3.04890000      -1.39390000       1.35880000
C       -2.19360000      -0.15010000       1.07820000
O       -2.24300000       0.87980000       1.69920000
H        1.96620000      -0.10080000      -0.88260000
H        1.04930000      -1.60900000      -0.89690000
H        0.65130000      -0.31680000      -2.05890000
H       -0.22290000       1.88070000      -1.08990000
H       -0.54620000       1.93500000       0.66390000
H        1.12590000       1.85090000       0.07050000
H       -1.81080000      -0.11620000      -1.02260000
H       -1.18880000      -2.47730000      -1.11760000
H       -0.64430000      -2.45150000       0.56860000
H       -3.37680000      -2.25520000      -0.45720000
H       -4.11280000      -1.14780000       1.40250000
H       -2.76610000      -1.77520000       2.35060000
