19
Properties=species:S:1:pos:R:3 gdb_3467=T pbc="F F F"
C       -0.15730000       1.53650000       0.00250000
C        0.01370000       0.02260000       0.01790000
C        1.12770000      -0.59820000      -0.88950000
C        2.12810000      -0.27600000       0.25820000
C        0.89520000      -0.60360000       1.14950000
C        0.71190000      -2.11060000       0.88160000
C        0.88960000      -2.10640000      -0.67770000
H        0.78620000       2.07850000       0.11190000
H       -0.61590000       1.86310000      -0.93770000
H       -0.81670000       1.85830000       0.81650000
H       -0.97300000      -0.44450000      -0.09580000
H        1.29100000      -0.25420000      -1.91250000
H        3.01210000      -0.91420000       0.35730000
H        2.43000000       0.77050000       0.29540000
H        0.82390000      -0.26520000       2.18490000
H        1.46580000      -2.71920000       1.38950000
H       -0.27360000      -2.47120000       1.19100000
H       -0.00070000      -2.46480000      -1.20290000
H        1.73890000      -2.71280000      -1.00600000
