21
Properties=species:S:1:pos:R:3 gdb_115708=T pbc="F F F"
C       -0.04440000       1.61820000      -0.13180000
C        0.03610000       0.12730000       0.19770000
O        0.60180000      -0.09490000       1.48820000
C       -1.32280000      -0.55810000       0.07600000
C       -1.87960000      -0.82710000      -1.33970000
O       -1.99740000      -2.24080000      -1.08170000
C       -1.41610000      -2.09750000       0.24630000
C       -0.16080000      -2.94900000       0.35000000
O       -0.49120000      -4.30320000       0.10010000
H        0.93970000       2.08240000      -0.02720000
H       -0.39790000       1.78260000      -1.15520000
H       -0.73990000       2.12880000       0.54650000
H        0.74400000      -0.34640000      -0.49220000
H        0.05700000       0.37030000       2.13320000
H       -2.04060000      -0.03420000       0.71710000
H       -2.84840000      -0.37300000      -1.57680000
H       -1.18100000      -0.61550000      -2.16120000
H       -2.13310000      -2.43040000       1.00710000
H        0.60290000      -2.59140000      -0.35730000
H        0.26190000      -2.88800000       1.35620000
H       -0.96410000      -4.30720000      -0.74140000
