25
Properties=species:S:1:pos:R:3 gdb_59994=T pbc="F F F"
C        0.01160000       1.49650000      -0.29570000
C       -0.03450000      -0.00940000      -0.01820000
C        0.50730000      -0.35430000       1.36560000
O       -1.37350000      -0.49410000      -0.06730000
C       -1.87770000      -0.82000000      -1.36060000
C       -1.47240000      -2.24440000      -1.75370000
C       -3.37900000      -0.65460000      -1.31390000
C       -3.99790000       0.70480000      -1.48650000
C       -4.14340000      -0.33280000      -2.57300000
H        1.04260000       1.86500000      -0.27250000
H       -0.40490000       1.73480000      -1.27930000
H       -0.56820000       2.03630000       0.45980000
H        0.57540000      -0.52810000      -0.77490000
H       -0.10600000       0.12050000       2.13820000
H        0.48230000      -1.43510000       1.52800000
H        1.53830000      -0.00550000       1.47970000
H       -1.47830000      -0.11300000      -2.10580000
H       -1.85950000      -2.49710000      -2.74580000
H       -0.38430000      -2.35870000      -1.77530000
H       -1.87510000      -2.96040000      -1.03030000
H       -3.86510000      -1.32160000      -0.60670000
H       -4.86810000       0.95430000      -0.88990000
H       -3.33220000       1.54200000      -1.66980000
H       -3.57840000      -0.18910000      -3.48880000
H       -5.11180000      -0.79730000      -2.72200000
