17
Properties=species:S:1:pos:R:3 gdb_2465=T pbc="F F F"
C        0.15190000       1.54370000       0.06920000
C        0.07980000       0.02970000      -0.01380000
C        0.77540000      -0.61090000      -1.23810000
C        1.29740000      -1.93680000      -0.68700000
C        2.55170000      -1.88990000       0.16610000
C        1.19400000      -1.81620000       0.80830000
O        0.73850000      -0.52990000       1.13570000
H        1.19380000       1.87890000       0.05670000
H       -0.37130000       1.99740000      -0.77860000
H       -0.31340000       1.90280000       0.99150000
H       -0.97560000      -0.28930000       0.00170000
H        0.07430000      -0.75940000      -2.06390000
H        1.58690000       0.02930000      -1.60360000
H        1.04990000      -2.85830000      -1.19980000
H        3.12090000      -2.80790000       0.27330000
H        3.14230000      -0.97940000       0.16080000
H        0.82790000      -2.60920000       1.45340000
