22
Properties=species:S:1:pos:R:3 gdb_59269=T pbc="F F F"
C        0.60780000       0.27360000      -1.40700000
C        0.07350000       0.04920000       0.01010000
O        0.16510000       1.24370000       0.79170000
C       -1.35230000      -0.46970000      -0.03250000
C       -1.76470000      -1.89120000       0.15400000
C       -0.80110000      -2.89840000       0.77000000
C       -0.39540000      -2.29660000       2.14090000
C       -1.39470000      -1.13210000       2.38540000
N       -2.14740000      -0.86830000       1.14240000
H        1.61730000       0.69040000      -1.36510000
H        0.63630000      -0.66460000      -1.97090000
H       -0.03020000       0.97620000      -1.95650000
H        0.73390000      -0.65420000       0.52070000
H       -0.50530000       1.85630000       0.46860000
H       -1.96170000       0.11110000      -0.73010000
H       -2.56490000      -2.28700000      -0.46740000
H       -1.32550000      -3.85040000       0.89870000
H        0.06620000      -3.10160000       0.13330000
H       -0.45180000      -3.04400000       2.93680000
H        0.63620000      -1.93670000       2.12800000
H       -2.13220000      -1.40850000       3.14550000
H       -0.89710000      -0.21730000       2.71540000
