21
Properties=species:S:1:pos:R:3 gdb_119534=T pbc="F F F"
C        0.00970000       1.59880000      -0.11440000
C       -0.02390000       0.06960000      -0.16010000
C       -1.41230000      -0.50530000       0.16630000
C       -1.43330000      -2.00960000       0.14850000
C       -1.60740000      -2.83080000      -1.12780000
C       -2.57440000      -3.05930000      -0.02190000
C       -1.93710000      -3.99420000       1.01660000
C       -0.85380000      -2.89860000       1.20950000
O       -0.01310000      -2.72140000       2.04820000
H        1.00800000       1.98130000      -0.34770000
H       -0.69110000       2.03460000      -0.83590000
H       -0.26500000       1.97110000       0.87880000
H        0.28480000      -0.28000000      -1.15340000
H        0.69890000      -0.34320000       0.55230000
H       -1.72270000      -0.15120000       1.15800000
H       -2.15230000      -0.12080000      -0.54820000
H       -1.95950000      -2.24050000      -1.96870000
H       -0.89170000      -3.60310000      -1.39850000
H       -3.63180000      -2.84470000      -0.10440000
H       -2.51270000      -4.11430000       1.93890000
H       -1.61620000      -4.97860000       0.66270000
