17
Properties=species:S:1:pos:R:3 gdb_19588=T pbc="F F F"
C       -0.06800000       1.55100000       0.00680000
C       -0.05920000       0.02990000      -0.00310000
C        1.14360000      -0.61530000      -0.74300000
O        1.97360000      -0.30810000       0.43600000
C        0.73020000      -0.63020000       1.15950000
C        0.63560000      -2.15020000       0.88810000
N       -0.40120000      -2.54230000      -0.09750000
C        0.94980000      -2.13890000      -0.55810000
H        0.92500000       1.94980000       0.22570000
H       -0.39280000       1.94110000      -0.96400000
H       -0.76760000       1.92770000       0.76110000
H       -1.04240000      -0.38490000      -0.22000000
H        1.55490000      -0.24170000      -1.68070000
H        0.71400000      -0.27190000       2.18870000
H        1.03230000      -2.87390000       1.58940000
H       -0.45530000      -3.55990000      -0.11720000
H        1.60410000      -2.85340000      -1.04220000
