18
Properties=species:S:1:pos:R:3 gdb_17191=T pbc="F F F"
C       -0.09520000       1.56570000      -0.00080000
C       -0.01500000       0.05120000       0.01020000
C        1.23790000      -0.64750000      -0.60190000
O        2.04880000      -0.13820000       0.53470000
C        0.79450000      -0.65840000       1.13880000
C        0.92510000      -1.89130000       0.23750000
C        0.13080000      -3.13350000       0.02740000
C        1.61160000      -3.19390000       0.40430000
H        0.87440000       2.00100000       0.24890000
H       -0.40040000       1.93200000      -0.98700000
H       -0.83600000       1.92130000       0.72370000
H       -0.96790000      -0.42850000      -0.23560000
H        1.66540000      -0.56730000      -1.60250000
H        0.69090000      -0.59130000       2.22290000
H       -0.59610000      -3.42150000       0.78050000
H       -0.14640000      -3.41060000      -0.98490000
H        2.31540000      -3.51150000      -0.35830000
H        1.86570000      -3.52240000       1.40690000
