18
Properties=species:S:1:pos:R:3 gdb_54156=T pbc="F F F"
C        0.67380000       0.57900000      -0.78380000
C       -0.27570000       0.29870000       0.36500000
O       -0.18130000       0.89550000       1.41450000
C       -1.40910000      -0.69790000       0.19570000
C       -2.47360000      -0.58710000       1.27120000
C       -1.82460000      -1.15780000      -1.18010000
C       -1.11150000      -2.13860000      -0.27910000
C        0.20510000      -2.61290000      -0.59750000
N        1.25780000      -3.01810000      -0.85660000
H        1.12490000      -0.33090000      -1.18770000
H        0.13380000       1.07180000      -1.60050000
H        1.45670000       1.24700000      -0.42420000
H       -2.93170000       0.40570000       1.25130000
H       -3.26030000      -1.33190000       1.11980000
H       -2.03700000      -0.72620000       2.26210000
H       -2.88070000      -1.32730000      -1.35730000
H       -1.27400000      -0.79190000      -2.03770000
H       -1.72350000      -2.89150000       0.20720000
