21
Properties=species:S:1:pos:R:3 gdb_107393=T pbc="F F F"
C        0.27380000       1.47680000      -0.28950000
C       -0.12380000       0.02320000      -0.00010000
C        0.47260000      -0.49810000       1.28140000
O        1.90720000      -0.75580000       1.24430000
C        1.02140000      -1.85040000       1.49360000
C        0.86800000      -2.20760000       2.96520000
C        0.25830000      -0.95170000       3.57270000
C        0.02430000      -0.83120000       5.04420000
C        0.02240000      -0.02960000       2.63180000
H        1.36210000       1.56920000      -0.34790000
H       -0.15090000       1.81630000      -1.23880000
H       -0.07940000       2.15510000       0.49420000
H       -1.21630000      -0.06460000       0.05630000
H        0.20700000      -0.61780000      -0.82440000
H        1.00910000      -2.62410000       0.72920000
H        0.21390000      -3.07980000       3.10000000
H        1.83170000      -2.45950000       3.42540000
H        0.96810000      -0.89710000       5.60050000
H       -0.45260000       0.11880000       5.29980000
H       -0.61150000      -1.64590000       5.41400000
H       -0.40950000       0.94840000       2.81070000
