14
Properties=species:S:1:pos:R:3 gdb_14488=T pbc="F F F"
O        0.31090000       1.34080000       0.25630000
C        0.16770000      -0.01100000       0.09740000
C        0.87990000      -1.10670000       0.85410000
C       -0.35870000      -2.03420000       0.71360000
C       -1.09830000      -0.92790000      -0.05990000
C       -0.26010000      -1.93810000      -0.80590000
O       -0.69130000      -2.77070000      -1.80400000
C        1.00840000      -1.02090000      -0.67750000
H        0.18710000       1.76430000      -0.60140000
H        1.66630000      -1.04430000       1.59440000
H       -0.78100000      -2.79620000       1.35590000
H       -2.16210000      -0.74050000      -0.11560000
H       -0.16200000      -3.57660000      -1.77790000
H        1.90010000      -0.87980000      -1.27420000
