16
Properties=species:S:1:pos:R:3 gdb_13322=T pbc="F F F"
O        0.18080000      -0.19870000      -0.31990000
C        0.07730000       0.99600000      -0.24250000
C        1.24420000       1.95870000      -0.04560000
C        1.30420000       2.97270000      -1.14850000
C        0.98040000       4.26310000      -1.11870000
C        1.17800000       4.87740000      -2.47390000
O        1.63330000       3.81180000      -3.30490000
C        1.74460000       2.61380000      -2.54770000
H       -0.91250000       1.50150000      -0.31750000
H        1.08990000       2.46680000       0.91480000
H        2.16220000       1.36500000       0.01640000
H        0.63490000       4.82230000      -0.25770000
H        0.24800000       5.30020000      -2.88600000
H        1.92250000       5.68960000      -2.46140000
H        2.78360000       2.24520000      -2.56790000
H        1.11880000       1.82510000      -2.99620000
