14
Properties=species:S:1:pos:R:3 gdb_12979=T pbc="F F F"
O        0.03840000       1.38840000      -0.08040000
C       -0.04380000       0.01110000      -0.00380000
C       -0.44200000      -0.80900000      -1.21870000
C       -1.31840000      -0.77460000       0.03600000
C       -1.04580000      -1.90960000       0.97250000
C        0.20300000      -1.87930000       1.46840000
C        0.89030000      -0.65940000       0.98160000
O        1.95450000      -0.18360000       1.31410000
H        0.92700000       1.60500000       0.23920000
H       -0.77740000      -0.21400000      -2.06240000
H        0.07590000      -1.73000000      -1.46480000
H       -2.29580000      -0.31170000      -0.01570000
H       -1.77480000      -2.69000000       1.16230000
H        0.66500000      -2.59840000       2.13080000
