20
Properties=species:S:1:pos:R:3 gdb_92722=T pbc="F F F"
C       -0.18890000       1.53520000       0.09710000
N       -0.08140000       0.09350000       0.17200000
C       -1.33670000      -0.65080000       0.03580000
C       -1.10100000      -1.87450000       0.87130000
C        0.01350000      -1.77290000       1.59450000
C        0.56640000      -2.72830000       2.60180000
C        0.68480000      -0.43860000       1.29290000
C        2.14900000      -0.64520000       0.90280000
O        3.06400000      -0.68280000       1.68370000
H        0.80690000       1.98980000       0.11680000
H       -0.66390000       1.82350000      -0.84620000
H       -0.77950000       1.97550000       0.92280000
H       -2.20770000      -0.08170000       0.41530000
H       -1.55070000      -0.87680000      -1.01920000
H       -1.79500000      -2.70620000       0.90390000
H       -0.04600000      -3.63130000       2.66390000
H        1.59470000      -3.02050000       2.36260000
H        0.60340000      -2.26950000       3.59770000
H        0.67590000       0.20200000       2.19480000
H        2.28710000      -0.79050000      -0.19270000
