19
Properties=species:S:1:pos:R:3 gdb_66831=T pbc="F F F"
C       -0.08690000       1.40460000      -0.01070000
C       -0.00230000      -0.08830000       0.07330000
C        0.20380000      -1.00110000      -1.17250000
C        0.95170000      -2.18460000      -0.52370000
C        1.95130000      -1.58580000       0.49790000
C        0.68930000      -0.96610000       1.14680000
C       -0.18520000      -2.14680000       0.57190000
C       -1.01880000      -1.13270000      -0.28540000
O       -2.36090000      -0.96520000      -0.51900000
H        0.90650000       1.85940000      -0.10520000
H       -0.67970000       1.71240000      -0.87830000
H       -0.56530000       1.82810000       0.87980000
H        0.30350000      -0.57490000      -2.16310000
H        1.18430000      -3.05940000      -1.13100000
H        2.39050000      -2.36100000       1.13410000
H        2.73790000      -0.91810000       0.13190000
H        0.65910000      -0.63630000       2.18540000
H       -0.52920000      -3.00330000       1.14680000
H       -2.64490000      -1.62660000      -1.16040000
