21
Properties=species:S:1:pos:R:3 gdb_86438=T pbc="F F F"
C       -0.27140000       1.46240000       0.01170000
C        0.04070000      -0.03060000       0.05060000
O        0.57560000      -0.37950000      -1.22930000
C        0.30370000      -1.68750000      -1.68700000
C        0.93480000      -1.78040000      -3.08190000
C        0.80550000      -2.79920000      -0.80080000
C        1.38530000      -2.73730000       0.40760000
C        1.59350000      -1.58000000       1.27250000
C        1.00180000      -0.38490000       1.15980000
H        0.64250000       2.03260000      -0.18220000
H       -0.98890000       1.68240000      -0.78220000
H       -0.69040000       1.79350000       0.96700000
H       -0.89720000      -0.59090000       0.20350000
H       -0.78940000      -1.82040000      -1.80530000
H        2.01990000      -1.66500000      -3.01150000
H        0.71340000      -2.74670000      -3.54350000
H        0.53870000      -0.98690000      -3.72020000
H        0.70230000      -3.78360000      -1.25580000
H        1.73100000      -3.68040000       0.82680000
H        2.26800000      -1.74250000       2.11010000
H        1.22430000       0.39100000       1.88810000
