17
Properties=species:S:1:pos:R:3 gdb_47311=T pbc="F F F"
O       -0.00840000      -0.15520000       0.02180000
C       -0.01590000       1.06210000       0.01040000
C       -1.35320000       1.80530000       0.00920000
C       -1.37320000       3.31460000      -0.24540000
N       -0.65880000       4.08790000       0.75690000
C        0.69100000       4.06420000       0.94390000
O        1.25480000       4.69950000       1.81220000
C        1.45160000       3.18720000      -0.05960000
N        1.16170000       1.76120000       0.04310000
H       -1.97210000       1.29680000      -0.73670000
H       -1.81230000       1.59380000       0.98200000
H       -0.97970000       3.54000000      -1.24430000
H       -2.41030000       3.65940000      -0.24460000
H       -1.17850000       4.62900000       1.43140000
H        1.28310000       3.56320000      -1.07920000
H        2.50710000       3.32510000       0.17080000
H        1.95950000       1.14300000       0.07240000
