19
Properties=species:S:1:pos:R:3 gdb_89830=T pbc="F F F"
C       -0.06060000       1.37880000       0.07550000
N       -0.03550000      -0.06240000       0.10690000
C       -1.19440000      -0.86980000      -0.22230000
C       -0.62360000      -2.28570000      -0.15470000
C       -1.13000000      -3.31490000       0.82190000
C       -1.35330000      -3.48200000      -0.67360000
N        0.78410000      -2.07820000      -0.38810000
C        1.14190000      -0.76890000      -0.06800000
O        2.26930000      -0.33270000       0.02490000
H        0.96030000       1.72960000       0.23620000
H       -0.42180000       1.76220000      -0.89040000
H       -0.70720000       1.77620000       0.86610000
H       -2.01480000      -0.71780000       0.48820000
H       -1.57170000      -0.63730000      -1.23230000
H       -0.40270000      -3.96450000       1.29860000
H       -1.98120000      -3.06330000       1.44670000
H       -2.35680000      -3.34390000      -1.06400000
H       -0.77610000      -4.24120000      -1.19090000
H        1.45400000      -2.79230000      -0.14660000
