16
Properties=species:S:1:pos:R:3 gdb_97012=T pbc="F F F"
C       -0.02310000       1.42720000       0.00980000
N        0.02820000      -0.02570000       0.00530000
C       -1.07090000      -0.65360000       0.01100000
C       -1.26990000      -2.16580000       0.00800000
N       -2.71770000      -2.40300000       0.01700000
C       -3.26520000      -1.24230000       0.02410000
N       -2.37970000      -0.16270000       0.02120000
C       -4.66790000      -0.99110000       0.03430000
C       -5.84240000      -0.73570000       0.04290000
H        0.99260000       1.82950000       0.00200000
H       -0.54470000       1.83050000      -0.87290000
H       -0.52910000       1.82540000       0.90370000
H       -0.81470000      -2.62670000      -0.87570000
H       -0.80290000      -2.63180000       0.88290000
H       -2.65190000       0.80460000       0.02600000
H       -6.88520000      -0.53090000       0.05060000
