15
Properties=species:S:1:pos:R:3 gdb_123683=T pbc="F F F"
C       -0.05570000       1.51840000      -0.00980000
C        1.43940000       1.89980000      -0.02710000
O        2.17790000       1.48610000       1.11840000
C        2.27910000       0.67920000      -0.08290000
C        1.33610000      -0.46420000      -0.08310000
C        0.04690000       0.01920000      -0.01050000
N       -0.76760000      -1.04960000       0.07680000
N       -0.08000000      -2.22160000       0.04020000
C        1.20280000      -1.86540000      -0.04850000
H       -0.55530000       1.92380000       0.87700000
H       -0.57040000       1.91590000      -0.89280000
H        1.73740000       2.85240000      -0.45790000
H        3.26390000       0.65210000      -0.53690000
H       -1.77110000      -1.08500000       0.13580000
H        1.96050000      -2.63400000      -0.08740000
