19
Properties=species:S:1:pos:R:3 gdb_91017=T pbc="F F F"
C       -0.14900000       1.49480000       0.06050000
C        0.13550000       0.03090000      -0.00500000
O       -0.77850000      -0.86070000       0.67220000
C        0.62690000      -0.95800000       0.97830000
C        1.30270000      -1.80690000      -0.12430000
C        0.43210000      -2.92060000      -0.76780000
C       -0.10390000      -1.89210000      -1.82630000
O       -1.48530000      -1.68570000      -1.91900000
C        0.77510000      -0.77010000      -1.17150000
H        0.73780000       2.07300000      -0.21790000
H       -0.95490000       1.76070000      -0.63280000
H       -0.45460000       1.78120000       1.07050000
H        0.88860000      -0.86010000       2.02690000
H        2.36890000      -1.98100000       0.01450000
H        1.01320000      -3.73650000      -1.20410000
H       -0.34290000      -3.34160000      -0.12370000
H        0.23900000      -2.12940000      -2.83720000
H       -1.78520000      -1.51890000      -1.01570000
H        1.44880000      -0.19530000      -1.80780000
