16
Properties=species:S:1:pos:R:3 gdb_123554=T pbc="F F F"
C        0.04330000       1.47730000      -0.00510000
C        1.28160000       0.66000000       0.03870000
C        1.95960000       0.35890000       1.39720000
C        0.83920000      -0.37620000       2.06930000
C       -0.23910000      -0.55180000       1.23930000
C       -1.19240000      -1.25720000       1.99450000
N       -0.72240000      -1.50000000       3.22320000
N        0.51720000      -0.95030000       3.24900000
N       -0.06200000      -0.00110000      -0.06700000
H       -0.29210000       1.95800000       0.91040000
H       -0.22160000       1.99300000      -0.92370000
H        1.89950000       0.60050000      -0.85100000
H        2.85310000      -0.26060000       1.25260000
H        2.27820000       1.26910000       1.91870000
H       -2.17950000      -1.59970000       1.72410000
H        1.06410000      -1.04290000       4.08760000
