17
Properties=species:S:1:pos:R:3 gdb_126181=T pbc="F F F"
C       -0.09960000       1.54040000       0.00890000
C       -0.09500000       0.01480000      -0.09560000
C        0.83410000      -0.48580000      -1.21990000
O        2.17220000      -0.06500000      -1.04360000
C        0.73930000      -1.98000000      -1.35110000
N        1.73580000      -2.76470000      -1.04000000
O        1.22480000      -4.05100000      -1.25520000
C       -0.02770000      -3.87840000      -1.67740000
N       -0.40170000      -2.64260000      -1.76070000
H        0.91530000       1.91690000       0.15910000
H       -0.49610000       1.99690000      -0.90480000
H       -0.72060000       1.87300000       0.84560000
H        0.24130000      -0.43090000       0.84970000
H       -1.10510000      -0.36580000      -0.28460000
H        0.49750000      -0.04680000      -2.16800000
H        2.61020000      -0.69610000      -0.46040000
H       -0.59590000      -4.76810000      -1.90730000
