14
Properties=species:S:1:pos:R:3 gdb_3779=T pbc="F F F"
C       -0.05500000       1.42740000      -0.02740000
N       -0.10320000      -0.02490000       0.05320000
C        0.61350000      -0.62090000       1.08250000
C        1.27690000      -0.09590000       2.17920000
C        1.74180000      -1.23160000       2.88240000
N        1.41300000      -2.37010000       2.29080000
N        0.71940000      -1.97170000       1.18950000
H        0.96410000       1.82880000      -0.13660000
H       -0.65550000       1.75510000      -0.87890000
H       -0.49280000       1.85500000       0.87950000
H        0.04800000      -0.46840000      -0.84310000
H        1.41490000       0.94360000       2.42350000
H        2.31450000      -1.25430000       3.79870000
H        0.29970000      -2.66710000       0.59700000
