14
Properties=species:S:1:pos:R:3 gdb_23190=T pbc="F F F"
O       -0.14270000       1.35710000      -0.10100000
N        0.00900000      -0.02550000       0.06770000
C       -1.10270000      -0.62090000      -0.00880000
C       -2.58150000      -0.23540000      -0.10170000
C       -2.88160000      -1.73560000       0.09670000
O       -2.25720000      -2.43350000      -0.96800000
C       -1.42790000      -2.07970000       0.17570000
C       -0.71380000      -3.09600000       0.86240000
C       -0.08920000      -3.93360000       1.45600000
H        0.76280000       1.67430000      -0.01130000
H       -2.88410000       0.40510000       0.73170000
H       -2.93100000       0.18930000      -1.04460000
H       -3.71630000      -2.20750000       0.60040000
H        0.46200000      -4.67670000       1.97770000
