21
Properties=species:S:1:pos:R:3 gdb_117264=T pbc="F F F"
C       -1.07050000       1.09590000      -0.95980000
O       -1.32870000      -0.24890000      -0.62650000
C       -0.74740000      -0.63230000       0.59470000
C       -1.04280000      -2.09870000       0.91720000
O       -0.56900000      -2.58320000       1.92050000
C       -1.88540000      -2.87490000      -0.06120000
C       -1.14010000      -3.39330000      -1.34240000
C       -1.88530000      -4.74440000      -1.17140000
C       -2.23700000      -4.34080000       0.28630000
H       -1.55810000       1.29460000      -1.91690000
H       -1.47360000       1.78650000      -0.20270000
H        0.00870000       1.28910000      -1.06090000
H        0.34750000      -0.50270000       0.58100000
H       -1.12650000      -0.02260000       1.43260000
H       -2.74980000      -2.27570000      -0.35640000
H       -1.29760000      -2.82580000      -2.26030000
H       -0.06460000      -3.49380000      -1.16940000
H       -2.77290000      -4.79930000      -1.80800000
H       -1.30150000      -5.65660000      -1.31360000
H       -1.52870000      -4.73640000       1.01790000
H       -3.25240000      -4.53910000       0.63590000
