20
Properties=species:S:1:pos:R:3 gdb_40684=T pbc="F F F"
C       -0.00770000       1.53110000       0.06500000
O        1.18160000       0.74320000      -0.00930000
C       -0.07980000       0.06500000       0.03220000
C       -0.35290000      -0.74050000       1.25700000
N       -1.55740000      -1.59920000       1.19550000
C       -0.24240000      -2.22050000       1.27440000
C        0.37290000      -3.14760000       0.21900000
C        1.25970000      -3.74930000       1.35020000
C        0.34940000      -3.06130000       2.41210000
H       -0.16320000       2.05470000       1.00790000
H       -0.24820000       2.10560000      -0.82860000
H       -0.37290000      -0.41410000      -0.90170000
H       -0.13210000      -0.22560000       2.19150000
H       -2.02330000      -1.62350000       2.09960000
H       -0.36080000      -3.86010000      -0.16930000
H        0.88880000      -2.67880000      -0.62210000
H        1.32590000      -4.83760000       1.39580000
H        2.27050000      -3.33600000       1.34610000
H        0.83970000      -2.52760000       3.23070000
H       -0.38690000      -3.75360000       2.83490000
