23
Properties=species:S:1:pos:R:3 gdb_62556=T pbc="F F F"
C       -0.08410000       1.44390000      -0.01830000
C       -0.04850000      -0.06590000      -0.18070000
C       -1.33880000      -0.73800000       0.26260000
C        0.66890000      -0.74720000      -1.35750000
C        0.06400000      -1.72730000      -2.32380000
C        1.95160000       0.02200000      -1.65590000
O        2.36880000      -0.03200000      -0.26920000
C        1.22790000      -0.84590000       0.06020000
C        1.48290000      -1.93980000       1.04840000
H        0.90540000       1.88700000      -0.14040000
H       -0.76860000       1.90580000      -0.73960000
H       -0.43910000       1.70800000       0.98460000
H       -2.18340000      -0.39840000      -0.34840000
H       -1.30190000      -1.82760000       0.19260000
H       -1.56260000      -0.48220000       1.30440000
H       -0.38560000      -1.20690000      -3.17910000
H        0.82520000      -2.40930000      -2.72030000
H       -0.72010000      -2.33630000      -1.86830000
H        2.64950000      -0.54210000      -2.28800000
H        1.86980000       1.04870000      -2.03330000
H        1.82260000      -1.51060000       1.99840000
H        0.58160000      -2.52390000       1.24690000
H        2.26510000      -2.61620000       0.68950000
