19
Properties=species:S:1:pos:R:3 gdb_107217=T pbc="F F F"
O        0.06930000       1.39440000       0.33760000
C        0.01780000       0.03130000      -0.06280000
C       -1.39070000      -0.50570000      -0.11610000
C       -1.97950000      -1.11410000       1.13750000
C       -1.68000000      -1.99880000      -0.04980000
C       -2.83110000      -2.26900000      -0.99290000
O       -4.06060000      -1.62210000      -0.63130000
C       -3.24030000      -1.01020000      -1.63740000
C       -2.35370000       0.12220000      -1.13850000
H       -0.37700000       1.45870000       1.18890000
H        0.47750000       0.00720000      -1.05780000
H        0.63040000      -0.60520000       0.59670000
H       -1.32160000      -1.20760000       1.99680000
H       -3.02210000      -0.93680000       1.36980000
H       -0.88390000      -2.73210000       0.01140000
H       -2.93890000      -3.24600000      -1.45530000
H       -3.69400000      -0.95550000      -2.62460000
H       -2.94220000       0.94700000      -0.72460000
H       -1.78000000       0.52850000      -1.97970000
