17
Properties=species:S:1:pos:R:3 gdb_126321=T pbc="F F F"
C        0.03580000       1.50390000      -0.29660000
C       -0.03410000       0.03710000       0.16060000
C       -1.42910000      -0.52410000       0.08220000
C       -1.87960000      -1.32350000      -0.97530000
N       -3.12000000      -1.77510000      -1.03910000
C       -3.90260000      -1.39770000      -0.01180000
N       -5.21110000      -1.77350000      -0.04360000
N       -3.51500000      -0.65900000       1.04690000
N       -2.26920000      -0.22470000       1.07820000
H        1.05470000       1.89220000      -0.20560000
H       -0.27560000       1.60880000      -1.34120000
H       -0.62520000       2.12370000       0.31590000
H        0.63910000      -0.57600000      -0.44940000
H        0.30950000      -0.03580000       1.19730000
H       -1.20780000      -1.61090000      -1.78290000
H       -5.45890000      -2.51870000      -0.67210000
H       -5.72820000      -1.68500000       0.81530000
