21
Properties=species:S:1:pos:R:3 gdb_108494=T pbc="F F F"
C       -0.16080000       1.39830000      -0.03700000
O        0.06740000       0.00680000       0.00980000
C        0.71210000      -0.52430000      -1.13060000
C       -0.10710000      -0.53240000      -2.45710000
C        0.27970000      -2.02670000      -2.63760000
C        0.78620000      -2.07970000      -1.16410000
C        2.25350000      -2.48260000      -0.94440000
C        2.98600000      -1.17420000      -1.14670000
C        2.16740000      -0.12760000      -1.25750000
H        0.77410000       1.97730000      -0.02940000
H       -0.74090000       1.69110000      -0.92510000
H       -0.73520000       1.65870000       0.85560000
H       -1.17320000      -0.40420000      -2.24890000
H        0.19030000       0.16260000      -3.24640000
H       -0.53370000      -2.70790000      -2.89480000
H        1.09080000      -2.16880000      -3.35660000
H        0.07940000      -2.55770000      -0.48500000
H        2.44250000      -2.89070000       0.05760000
H        2.57610000      -3.25300000      -1.65650000
H        4.06940000      -1.11850000      -1.18990000
H        2.48640000       0.89780000      -1.40890000
