25
Properties=species:S:1:pos:R:3 gdb_101679=T pbc="F F F"
C       -0.01780000       1.58190000       0.12050000
C       -0.04510000       0.05720000      -0.01000000
C        0.72190000      -0.45710000      -1.23390000
O        2.08630000      -0.02700000      -1.21240000
C        0.62590000      -1.97980000      -1.38620000
C        1.26710000      -2.49820000      -2.67440000
C        1.33050000      -4.02730000      -2.71410000
O        0.48340000      -1.98070000      -3.74730000
C        1.14720000      -1.92580000      -4.98770000
H        1.01220000       1.94760000       0.14280000
H       -0.51790000       2.05620000      -0.73100000
H       -0.52350000       1.91280000       1.03260000
H        0.38340000      -0.40420000       0.89290000
H       -1.08140000      -0.29840000      -0.06820000
H        0.30900000       0.00160000      -2.13910000
H        2.48950000      -0.38780000      -0.41410000
H        1.10660000      -2.46220000      -0.52350000
H       -0.42780000      -2.28470000      -1.37530000
H        2.28490000      -2.08430000      -2.74360000
H        1.77070000      -4.38680000      -3.64880000
H        1.94420000      -4.40960000      -1.89180000
H        0.32600000      -4.45340000      -2.62390000
H        0.46640000      -1.44710000      -5.69660000
H        2.07160000      -1.33100000      -4.92790000
H        1.40430000      -2.92250000      -5.37640000
