14
Properties=species:S:1:pos:R:3 gdb_129458=T pbc="F F F"
N       -0.05430000       1.27780000      -0.04430000
C        0.04260000      -0.07200000      -0.02080000
O        1.10510000      -0.68110000       0.00600000
C       -1.25290000      -0.79930000      -0.02170000
N       -2.40910000      -0.17180000       0.04090000
O       -3.36730000      -1.14400000       0.06230000
C       -2.77230000      -2.36290000       0.00410000
C       -1.41500000      -2.22100000      -0.05200000
N       -0.40000000      -3.14960000      -0.18720000
H        0.78900000       1.82530000      -0.01580000
H       -0.95510000       1.72700000      -0.04140000
H       -3.43690000      -3.21060000       0.01200000
H       -0.55770000      -4.03680000       0.26640000
H        0.50670000      -2.74410000       0.01370000
