19
Properties=species:S:1:pos:R:3 gdb_73013=T pbc="F F F"
C       -0.04570000       1.51950000      -0.05140000
C        0.00180000       0.03470000       0.09150000
O       -0.63950000      -0.75300000      -0.92800000
C       -1.13060000      -1.68530000       0.07400000
C       -0.37820000      -0.96130000       1.18130000
C        1.05660000      -0.79030000       0.74820000
C        2.05770000      -1.76810000       0.14410000
O        3.11110000      -1.22060000       0.97410000
C        2.20930000      -0.29840000       1.61980000
H        0.49410000       1.83370000      -0.95200000
H       -1.07820000       1.87200000      -0.13410000
H        0.42100000       2.00690000       0.80930000
H       -2.22050000      -1.61430000       0.16090000
H       -0.84530000      -2.72130000      -0.14530000
H       -0.71000000      -0.81290000       2.20150000
H        1.88260000      -2.83100000       0.35710000
H        2.26240000      -1.64150000      -0.92530000
H        2.51860000       0.74610000       1.48040000
H        2.11450000      -0.50140000       2.69540000
