19
Properties=species:S:1:pos:R:3 gdb_79972=T pbc="F F F"
C       -0.50230000       1.25000000      -0.01800000
C       -0.18770000      -0.19160000       0.31840000
C        1.06690000      -0.92100000      -0.13650000
C        2.25900000      -0.07680000      -0.42370000
C        2.71710000       0.54450000       0.66670000
C        1.94200000       0.14690000       1.91400000
C        1.48810000       1.32640000       2.75890000
O        1.84210000       1.51560000       3.89490000
C        0.79320000      -0.70700000       1.35320000
H        0.39540000       1.86800000      -0.08030000
H       -1.01120000       1.30620000      -0.98700000
H       -1.16960000       1.69160000       0.73000000
H       -1.07050000      -0.82670000       0.27260000
H        0.96680000      -1.88900000      -0.61620000
H        2.68230000       0.02280000      -1.41710000
H        3.54660000       1.24150000       0.70030000
H        2.57280000      -0.46000000       2.57670000
H        0.79070000       2.02870000       2.25520000
H        0.45280000      -1.52650000       1.97500000
