21
Properties=species:S:1:pos:R:3 gdb_115508=T pbc="F F F"
C       -0.42730000       1.37200000      -0.29330000
C       -0.35950000      -0.15440000      -0.37460000
C        0.83240000      -0.64660000      -1.19690000
C        0.87520000      -2.16800000      -1.40390000
O        0.16340000      -2.35250000      -2.62170000
C        0.43570000      -1.21520000      -3.41850000
C       -0.81030000      -0.91290000      -4.24890000
O       -1.97870000      -0.88950000      -3.46100000
O        0.76400000      -0.15420000      -2.54100000
H        0.46500000       1.78450000       0.19150000
H       -0.49610000       1.80140000      -1.29580000
H       -1.30020000       1.69740000       0.27990000
H       -0.28570000      -0.58550000       0.63260000
H       -1.27630000      -0.54010000      -0.83340000
H        1.76760000      -0.27910000      -0.75610000
H        1.90790000      -2.53260000      -1.50170000
H        0.36720000      -2.73440000      -0.62010000
H        1.29990000      -1.40430000      -4.08030000
H       -0.69610000       0.07360000      -4.70700000
H       -0.87370000      -1.66010000      -5.05640000
H       -1.96020000      -1.70770000      -2.94950000
