11
Properties=species:S:1:pos:R:3 gdb_21415=T pbc="F F F"
N       -0.11090000       1.31760000       0.03050000
C       -0.00910000       0.05040000       0.02960000
N        1.06790000      -0.83830000       0.04330000
N        0.71550000      -2.15480000       0.03610000
C       -0.58620000      -2.12990000       0.01800000
N       -1.07980000      -0.84400000       0.01290000
C       -1.41050000      -3.28400000       0.00460000
N       -2.12340000      -4.19510000      -0.00670000
H        0.79650000       1.77440000       0.04430000
H        2.04240000      -0.59380000       0.05590000
H       -2.04290000      -0.55600000       0.00170000
