16
Properties=species:S:1:pos:R:3 gdb_27556=T pbc="F F F"
O       -0.02030000       1.27020000       0.06180000
C       -0.00610000      -0.07030000      -0.01090000
N       -0.11890000      -0.80090000      -1.08650000
C       -0.04330000      -2.11610000      -0.63420000
C        0.12160000      -2.14120000       0.72080000
N        0.13860000      -0.80430000       1.11730000
C       -0.12110000      -3.24220000      -1.58030000
C       -0.99840000      -3.14420000      -2.78000000
N        0.46210000      -3.08870000      -2.93010000
H       -0.13280000       1.59060000      -0.84180000
H        0.22460000      -2.94580000       1.42820000
H        0.24990000      -0.44190000       2.04830000
H        0.04380000      -4.22060000      -1.13630000
H       -1.46860000      -4.03950000      -3.17800000
H       -1.56520000      -2.22540000      -2.89770000
H        0.73690000      -2.11270000      -3.03160000
