20
Properties=species:S:1:pos:R:3 gdb_36925=T pbc="F F F"
C        0.77020000       1.36930000       0.82720000
C        0.62170000      -0.11790000       0.47170000
O        0.22590000      -0.82970000       1.64920000
C       -0.96570000      -1.57330000       1.40910000
C       -1.34800000      -1.25230000      -0.00830000
C       -0.44590000      -0.43650000      -0.54100000
N        1.32920000       2.11890000      -0.28980000
C        0.38220000       2.81980000      -1.15420000
C        1.24150000       3.57080000      -0.19910000
H       -0.20710000       1.76000000       1.16190000
H        1.46240000       1.44250000       1.67320000
H        1.60730000      -0.47820000       0.13610000
H       -0.77540000      -2.64910000       1.55500000
H       -1.74020000      -1.28270000       2.13610000
H       -2.22830000      -1.65790000      -0.49080000
H       -0.43400000      -0.04590000      -1.54970000
H        0.61240000       2.81170000      -2.21600000
H       -0.67760000       2.74570000      -0.91510000
H        0.75290000       3.99860000       0.67520000
H        2.11030000       4.12060000      -0.54990000
