25
Properties=species:S:1:pos:R:3 gdb_122194=T pbc="F F F"
C       -0.06310000       1.47920000      -0.18830000
C       -0.03610000      -0.02290000       0.03970000
O       -1.35910000      -0.51210000      -0.01620000
C       -1.45440000      -1.90870000       0.16820000
C       -2.91960000      -2.32830000       0.08220000
C       -3.73880000      -1.68120000       1.19330000
C       -3.46910000      -2.18660000      -1.37370000
C       -3.20610000      -3.69900000      -1.60600000
C       -3.03500000      -3.87850000      -0.07290000
H        0.95030000       1.88990000      -0.15070000
H       -0.49630000       1.71060000      -1.16560000
H       -0.66690000       1.97250000       0.57870000
H        0.58560000      -0.51910000      -0.72550000
H        0.41620000      -0.25760000       1.01870000
H       -0.85770000      -2.43250000      -0.59880000
H       -1.03950000      -2.19670000       1.15100000
H       -3.66970000      -0.59100000       1.13970000
H       -4.79360000      -1.96530000       1.11920000
H       -3.37740000      -1.99200000       2.18150000
H       -4.53570000      -1.94470000      -1.38180000
H       -2.94840000      -1.47290000      -2.01580000
H       -4.00370000      -4.27310000      -2.08290000
H       -2.28030000      -3.88670000      -2.15640000
H       -2.18480000      -4.47490000       0.27340000
H       -3.93910000      -4.26450000       0.40690000
