21
Properties=species:S:1:pos:R:3 gdb_109835=T pbc="F F F"
C       -0.01850000       1.54700000       0.20090000
C        0.03030000       0.06180000      -0.17760000
C       -1.34200000      -0.58410000      -0.13170000
C       -1.55990000      -2.08010000       0.03350000
C       -0.41950000      -3.06810000       0.15860000
C       -1.90960000      -1.12240000       1.15110000
O       -1.05760000      -1.04310000       2.28160000
C       -1.30790000      -1.91210000       3.28370000
O       -0.67430000      -1.92530000       4.29540000
H        0.97390000       2.00270000       0.13160000
H       -0.68910000       2.10550000      -0.46170000
H       -0.37720000       1.67260000       1.22690000
H        0.43890000      -0.05180000      -1.18950000
H        0.71710000      -0.45590000       0.49650000
H       -2.07250000      -0.08230000      -0.76280000
H       -2.42320000      -2.47570000      -0.49640000
H        0.39450000      -2.68660000       0.77770000
H       -0.76690000      -4.00400000       0.61000000
H       -0.00670000      -3.31040000      -0.82610000
H       -2.95150000      -0.93490000       1.39570000
H       -2.15400000      -2.58960000       3.06040000
