15
Properties=species:S:1:pos:R:3 gdb_45991=T pbc="F F F"
O       -0.02690000      -0.04600000      -0.29140000
C       -0.06910000       1.15540000      -0.11860000
N       -1.15370000       1.93540000      -0.39240000
C       -1.49340000       3.18320000       0.28380000
C       -0.66240000       4.37890000      -0.19210000
O       -1.20910000       5.42510000      -0.48650000
C        0.78820000       4.22760000      -0.17280000
C        1.49330000       3.12210000       0.14760000
N        1.07190000       1.82860000       0.36440000
H       -1.92420000       1.38780000      -0.74320000
H       -2.53750000       3.41250000       0.07230000
H       -1.38200000       3.08590000       1.37380000
H        1.34630000       5.13820000      -0.35700000
H        2.57060000       3.21640000       0.25370000
H        1.79900000       1.15460000       0.55450000
