16
Properties=species:S:1:pos:R:3 gdb_102364=T pbc="F F F"
C       -0.09700000       1.26030000       0.22930000
O       -0.01600000      -0.15300000       0.05360000
C        0.61110000      -0.58710000      -1.13030000
C        0.68040000      -2.13630000      -1.02050000
O        1.23330000      -2.72910000      -2.16480000
C       -0.26010000      -0.22740000      -2.35340000
O        0.12250000       0.31690000      -3.34770000
C        1.98230000      -0.05920000      -1.28230000
N        3.07530000       0.30410000      -1.37110000
H        0.90070000       1.71070000       0.29070000
H       -0.65590000       1.74250000      -0.58310000
H       -0.62550000       1.41670000       1.17060000
H        1.21520000      -2.37900000      -0.09330000
H       -0.34580000      -2.50340000      -0.92640000
H        2.17030000      -2.50560000      -2.20930000
H       -1.31800000      -0.53250000      -2.19470000
