21
Properties=species:S:1:pos:R:3 gdb_111876=T pbc="F F F"
C        0.02710000       1.15220000       0.41100000
O       -0.21360000       0.12510000      -0.53830000
C       -1.40020000      -0.55780000      -0.29300000
C       -1.44600000      -2.00870000      -0.72590000
C       -0.21080000      -2.66790000      -1.33130000
C        0.60980000      -3.36870000      -0.23940000
C        0.89410000      -2.40400000       0.90560000
O       -0.29160000      -1.91940000       1.54160000
C       -1.41080000      -1.65500000       0.74820000
H        0.97370000       1.62410000       0.13670000
H       -0.76800000       1.91230000       0.38550000
H        0.09800000       0.74550000       1.42670000
H       -2.30230000       0.04510000      -0.41830000
H       -2.40150000      -2.35140000      -1.10980000
H       -0.51680000      -3.38590000      -2.09710000
H        0.40980000      -1.91390000      -1.82620000
H        0.06190000      -4.23740000       0.14610000
H        1.56180000      -3.73300000      -0.64090000
H        1.46030000      -2.89470000       1.70340000
H        1.48940000      -1.55920000       0.53310000
H       -2.31410000      -1.79290000       1.33540000
