17
Properties=species:S:1:pos:R:3 gdb_7111=T pbc="F F F"
C       -0.12660000       1.39320000      -0.33770000
C        0.03180000       0.02060000       0.31900000
N       -1.23710000      -0.67180000       0.49570000
C       -1.58550000      -1.77110000      -0.22680000
O       -0.86010000      -2.30130000      -1.05080000
C       -2.96950000      -2.34180000       0.07990000
C       -2.87250000      -3.82000000       0.42870000
O       -3.50500000      -4.34130000       1.30890000
H        0.84810000       1.88050000      -0.43880000
H       -0.56860000       1.29750000      -1.33350000
H       -0.76830000       2.05060000       0.25930000
H        0.64760000      -0.63530000      -0.29950000
H        0.52300000       0.11990000       1.29450000
H       -1.90720000      -0.28730000       1.14160000
H       -3.51650000      -1.81990000       0.86880000
H       -3.54700000      -2.27200000      -0.85150000
H       -2.16300000      -4.38390000      -0.20990000
