20
Properties=species:S:1:pos:R:3 gdb_67022=T pbc="F F F"
C       -0.15170000       1.50970000      -0.01160000
C        0.09140000       0.03320000      -0.02420000
C        0.32500000      -0.84300000      -1.19370000
C        1.49630000      -1.70880000      -0.92690000
C        1.77700000      -1.67880000       0.38260000
C        0.72590000      -0.86910000       1.10290000
C        1.06680000      -0.31000000       2.46770000
C       -0.60310000      -1.69420000       0.92370000
N       -0.95480000      -0.99150000      -0.33620000
H        0.79030000       2.06600000      -0.07430000
H       -0.77600000       1.79200000      -0.86470000
H       -0.66950000       1.82410000       0.90120000
H        0.06340000      -0.51980000      -2.19420000
H        1.98910000      -2.30420000      -1.68480000
H        2.51680000      -2.27890000       0.90070000
H        1.90970000       0.38770000       2.41430000
H        0.21680000       0.22120000       2.90850000
H        1.34680000      -1.11360000       3.15840000
H       -0.52230000      -2.78480000       0.86430000
H       -1.35180000      -1.41350000       1.67030000
