17
Properties=species:S:1:pos:R:3 gdb_52767=T pbc="F F F"
C       -0.11990000       1.44440000       0.08370000
C       -0.07770000      -0.01010000       0.05710000
C       -0.01720000      -1.21530000       0.04650000
C        0.04280000      -2.64980000       0.01680000
O        0.94320000      -3.24420000      -0.87910000
C       -0.30490000      -3.46010000       1.28090000
O       -0.67340000      -2.83180000       2.45480000
C       -1.27090000      -3.41340000       0.12650000
O       -2.43940000      -2.69370000       0.38730000
H        0.88630000       1.86390000       0.19180000
H       -0.55550000       1.85420000      -0.83410000
H       -0.71820000       1.80380000       0.92810000
H        1.83380000      -3.08520000      -0.54510000
H        0.29070000      -4.35740000       1.42470000
H       -1.57450000      -2.50710000       2.30610000
H       -1.38780000      -4.27110000      -0.53050000
H       -2.36830000      -1.83700000      -0.05490000
