19
Properties=species:S:1:pos:R:3 gdb_68038=T pbc="F F F"
C       -0.14040000       1.54170000      -0.05400000
C        0.04040000       0.03060000      -0.02830000
O       -1.22130000      -0.58860000      -0.22690000
C        1.27070000      -0.63750000      -0.71840000
O        1.50050000      -0.53640000      -2.07640000
C        2.15790000      -0.12610000       0.46890000
C        0.85980000      -0.68330000       1.09660000
O        0.60230000      -0.67980000       2.45060000
C        1.00080000      -1.91680000       0.13470000
H       -0.53980000       1.84930000      -1.02830000
H       -0.86410000       1.83650000       0.71160000
H        0.78060000       2.10160000       0.10770000
H       -1.57660000      -0.27690000      -1.06570000
H        2.26280000      -1.07970000      -2.30290000
H        3.05660000      -0.71370000       0.67010000
H        2.35550000       0.94170000       0.55210000
H       -0.28250000      -1.03990000       2.58060000
H        0.09800000      -2.47860000      -0.09180000
H        1.86660000      -2.55620000       0.32360000
