15
Properties=species:S:1:pos:R:3 gdb_43923=T pbc="F F F"
O        0.05960000      -0.02910000       0.00180000
C        0.09210000       1.16620000       0.00820000
O       -1.05300000       1.93950000       0.02930000
C       -0.71460000       3.31520000       0.03230000
C       -1.48130000       4.19870000      -0.98630000
O       -1.92270000       5.08330000       0.06000000
C       -1.45130000       4.18680000       1.08280000
C        0.78040000       3.34600000       0.01080000
C        1.24640000       2.09890000      -0.00310000
H       -0.88740000       4.71520000      -1.74730000
H       -2.30770000       3.65500000      -1.45940000
H       -2.26370000       3.63750000       1.57330000
H       -0.83550000       4.69450000       1.83220000
H        1.34060000       4.27230000       0.00800000
H        2.26800000       1.74980000      -0.02000000
