14
Properties=species:S:1:pos:R:3 gdb_56973=T pbc="F F F"
O       -0.45990000       1.23270000      -0.11500000
C       -0.06240000      -0.10550000      -0.12440000
C        0.97040000      -0.37250000      -1.15990000
N        1.77220000      -0.58600000      -1.96330000
C        0.46600000      -0.62370000       1.21070000
O        1.37410000       0.21720000       1.89820000
C        0.13120000      -0.05510000       2.54010000
C       -0.77540000       1.11270000       2.81800000
O       -0.52970000       2.25150000       2.51970000
H        0.16080000       1.74000000       0.42940000
H       -0.94460000      -0.70070000      -0.39380000
H        0.74410000      -1.67890000       1.18520000
H        0.18890000      -0.75200000       3.38060000
H       -1.68850000       0.83870000       3.38840000
