18
Properties=species:S:1:pos:R:3 gdb_11893=T pbc="F F F"
C        0.03180000       1.49750000      -0.01050000
C       -0.01560000       0.00540000      -0.00100000
C       -1.05070000      -0.80830000       0.20390000
C       -0.61500000      -2.21730000       0.11770000
C       -1.13330000      -3.32830000       0.99400000
C       -1.42810000      -3.32830000      -0.49490000
O        0.77360000      -2.19430000      -0.15730000
C        1.21100000      -0.84170000      -0.24380000
H        0.72790000       1.87860000       0.74780000
H        0.38540000       1.87850000      -0.97720000
H       -0.95230000       1.93110000       0.18490000
H       -2.07400000      -0.51830000       0.40650000
H       -0.39540000      -4.03650000       1.35400000
H       -1.93860000      -3.11310000       1.68870000
H       -2.43730000      -3.11320000      -0.83030000
H       -0.88300000      -4.03660000      -1.10890000
H        1.65610000      -0.65400000      -1.23490000
H        2.00000000      -0.65400000       0.50300000
