20
Properties=species:S:1:pos:R:3 gdb_116112=T pbc="F F F"
O       -0.09070000       1.42400000       0.12640000
C        0.02270000       0.01660000      -0.03350000
C       -1.39030000      -0.55860000       0.00540000
C       -1.40790000      -2.07320000      -0.19820000
C       -2.80590000      -2.62620000       0.09030000
C       -3.19310000      -2.33870000       1.54480000
C       -2.92950000      -0.90510000       1.99950000
O       -3.47230000      -0.43140000       2.98110000
N       -2.00900000      -0.19950000       1.27500000
H        0.78470000       1.78870000       0.28310000
H        0.49420000      -0.24160000      -0.99420000
H        0.61730000      -0.43190000       0.77630000
H       -1.94870000      -0.08790000      -0.82070000
H       -1.09630000      -2.29970000      -1.22290000
H       -0.68010000      -2.54400000       0.47630000
H       -3.52830000      -2.15640000      -0.58940000
H       -2.84460000      -3.70230000      -0.10690000
H       -4.24740000      -2.54650000       1.74240000
H       -2.62040000      -2.98730000       2.22080000
H       -1.87080000       0.75590000       1.57540000
