13
Properties=species:S:1:pos:R:3 gdb_8991=T pbc="F F F"
O       -0.37940000       0.33840000       0.40140000
C        0.13400000       1.37920000       0.09090000
C        1.50630000       1.48800000      -0.56200000
N        1.58480000       2.58130000      -1.50530000
C        2.34510000       3.69520000      -1.26400000
O        2.98860000       3.86600000      -0.24600000
C        2.31080000       4.66370000      -2.34990000
C        2.30080000       5.48040000      -3.23180000
H       -0.36030000       2.36170000       0.26640000
H        2.23870000       1.70490000       0.22540000
H        1.76320000       0.52900000      -1.02220000
H        1.10460000       2.51470000      -2.38860000
H        2.30160000       6.21150000      -4.00350000
