15
Properties=species:S:1:pos:R:3 gdb_98135=T pbc="F F F"
C       -0.12490000       1.46720000       0.01200000
O       -0.02550000       0.03350000       0.00260000
C       -1.17730000      -0.61860000       0.01060000
O       -2.27510000      -0.10860000       0.02520000
C       -0.95670000      -2.15300000      -0.00040000
O        0.13230000      -2.66090000      -0.01330000
N       -2.18640000      -2.77660000       0.00840000
C       -2.47820000      -4.13760000       0.00410000
N       -1.59940000      -5.04920000      -0.00890000
H        0.90110000       1.83150000       0.00340000
H       -0.66740000       1.81580000      -0.87000000
H       -0.64880000       1.80540000       0.90920000
H       -2.96380000      -2.12930000       0.01930000
H       -3.56400000      -4.29420000       0.01340000
H       -2.05160000      -5.96220000      -0.00950000
