23
Properties=species:S:1:pos:R:3 gdb_96089=T pbc="F F F"
C       -0.01340000       1.52010000       0.05750000
C        0.02530000       0.00090000      -0.01180000
C        0.75640000      -0.52980000      -1.25500000
C        0.88130000      -2.04370000      -1.19670000
C       -0.19940000      -2.88470000      -1.83820000
C        1.18020000      -2.81200000      -2.45420000
C        1.47130000      -2.50420000       0.12560000
C        0.69880000      -1.86570000       1.28450000
O        0.66880000      -0.45320000       1.17580000
H        1.00270000       1.92670000       0.07820000
H       -0.53500000       1.93250000      -0.81160000
H       -0.53060000       1.84730000       0.96340000
H       -1.00760000      -0.39180000      -0.02510000
H        0.22430000      -0.21730000      -2.16120000
H        1.75580000      -0.07440000      -1.28930000
H       -0.49170000      -3.80940000      -1.35100000
H       -1.01300000      -2.38000000      -2.34910000
H        1.29680000      -2.25530000      -3.37870000
H        1.81790000      -3.68730000      -2.38070000
H        1.44180000      -3.59660000       0.21180000
H        2.52360000      -2.19770000       0.19070000
H       -0.32970000      -2.26540000       1.30930000
H        1.17050000      -2.08780000       2.24650000
