19
Properties=species:S:1:pos:R:3 gdb_70763=T pbc="F F F"
C        0.00140000       1.46500000      -0.02830000
C        0.02830000      -0.03710000      -0.05910000
C        0.56510000      -0.96230000      -1.17090000
C        0.05820000      -1.94340000      -0.08930000
C        0.07210000      -3.37460000      -0.09390000
C        0.08850000      -4.57830000      -0.10740000
C        0.53910000      -0.99790000       1.08100000
C       -0.83590000      -1.03830000       1.77330000
C       -1.16580000      -1.01180000       0.26930000
H        1.01360000       1.87790000      -0.10350000
H       -0.58350000       1.86480000      -0.86430000
H       -0.44410000       1.83870000       0.90020000
H        0.01970000      -0.96500000      -2.12060000
H        1.64610000      -0.95170000      -1.34630000
H        0.10320000      -5.63980000      -0.11880000
H        1.53980000      -1.00660000       1.51710000
H       -1.08540000      -1.95610000       2.31310000
H       -1.12080000      -0.15760000       2.35670000
H       -2.13510000      -1.03670000      -0.23240000
