17
Properties=species:S:1:pos:R:3 gdb_34242=T pbc="F F F"
N       -0.04610000      -1.14030000       0.05080000
C       -0.05610000       0.01640000       0.03350000
C       -0.07580000       1.45390000      -0.01010000
N       -1.02630000       2.22820000       0.83480000
C       -0.66240000       3.34720000      -0.11510000
C        0.76200000       3.63660000       0.39340000
C        1.31500000       2.26500000      -0.04320000
C        1.16620000       2.34400000      -1.58570000
C       -0.33900000       2.31890000      -1.28390000
H       -1.96330000       1.89600000       0.59970000
H       -1.37450000       4.16250000      -0.22310000
H        1.26780000       4.46030000      -0.11640000
H        0.76260000       3.80610000       1.47050000
H        2.20670000       1.86970000       0.43760000
H        1.60150000       3.21100000      -2.08930000
H        1.47590000       1.42460000      -2.08960000
H       -1.12100000       2.08420000      -2.00480000
