22
Properties=species:S:1:pos:R:3 gdb_56030=T pbc="F F F"
N        0.11430000       1.27440000       0.24240000
C        0.20390000      -0.06570000      -0.00830000
O        1.26980000      -0.61330000      -0.21740000
C       -1.13660000      -0.80110000      -0.04360000
C       -0.99560000      -2.30620000       0.16950000
C       -0.58020000      -2.72760000       1.58930000
C       -0.87510000      -4.24090000       1.63240000
C       -2.04400000      -4.47050000       0.62640000
C       -2.29640000      -3.09980000      -0.04830000
H        0.96330000       1.81490000       0.26620000
H       -0.75580000       1.72550000       0.46170000
H       -1.82250000      -0.36920000       0.69770000
H       -1.58530000      -0.60050000      -1.02670000
H       -0.22980000      -2.66710000      -0.52740000
H        0.46180000      -2.48550000       1.81060000
H       -1.20560000      -2.19780000       2.32180000
H        0.00970000      -4.80210000       1.31550000
H       -1.11890000      -4.58570000       2.64110000
H       -1.76530000      -5.22230000      -0.11810000
H       -2.94500000      -4.84360000       1.12120000
H       -3.12530000      -2.58000000       0.45070000
H       -2.56830000      -3.18870000      -1.10490000
