19
Properties=species:S:1:pos:R:3 gdb_88486=T pbc="F F F"
C        1.27080000       1.11820000      -0.97360000
C        0.59050000      -0.08930000      -0.36870000
C        1.37380000      -1.28570000       0.05090000
N        0.71550000      -0.44870000       1.05160000
C        1.47980000       0.37640000       1.95980000
C        2.22870000      -0.29270000       3.09320000
C        3.00550000       0.44590000       2.04000000
C        0.78020000       1.60040000       2.28740000
N        0.23350000       2.58760000       2.54080000
H        2.30600000       1.22010000      -0.63980000
H        1.27590000       1.03050000      -2.06500000
H        0.73800000       2.03840000      -0.71460000
H       -0.42070000      -0.25620000      -0.73540000
H        0.97200000      -2.29080000      -0.04510000
H        2.45360000      -1.22120000      -0.06640000
H        2.14610000       0.13530000       4.08470000
H        2.23560000      -1.37660000       3.06080000
H        3.57400000      -0.13610000       1.32520000
H        3.44790000       1.40260000       2.29290000
