19
Properties=species:S:1:pos:R:3 gdb_59138=T pbc="F F F"
C        0.05970000       1.55820000      -0.07690000
C        0.07290000       0.03760000       0.08740000
O        0.64720000      -0.34540000       1.33620000
C       -1.32590000      -0.55690000       0.07380000
C       -2.05450000      -0.73960000      -1.27860000
C       -1.30330000      -2.07460000      -1.59450000
O       -2.51670000      -2.83870000      -1.85860000
C       -2.85820000      -1.96520000      -0.74240000
C       -1.47150000      -2.09080000      -0.03950000
H        1.07800000       1.96350000      -0.04830000
H       -0.38400000       1.84880000      -1.03460000
H       -0.51530000       2.02340000       0.73020000
H        0.65390000      -0.40270000      -0.74140000
H        1.51500000       0.06550000       1.40380000
H       -1.92990000      -0.10090000       0.86710000
H       -2.40320000       0.00020000      -1.99980000
H       -0.42850000      -2.26460000      -2.21470000
H       -3.86290000      -2.01070000      -0.32320000
H       -1.15230000      -2.87340000       0.64670000
