25
Properties=species:S:1:pos:R:3 gdb_59354=T pbc="F F F"
C       -0.15550000       1.50780000       0.04680000
C        0.01280000      -0.01090000      -0.09750000
C        0.79290000      -0.37030000      -1.36980000
C        0.67670000      -0.60690000       1.14310000
C       -0.04770000      -0.53340000       2.51870000
C        0.46120000      -1.96900000       2.83340000
C       -0.45520000      -2.95290000       3.54380000
C        0.75150000      -2.16220000       1.30890000
O       -0.21730000      -2.90460000       0.59060000
H        0.82010000       2.00290000       0.12360000
H       -0.67400000       1.93050000      -0.82030000
H       -0.73100000       1.76760000       0.94120000
H       -0.99150000      -0.45040000      -0.18920000
H        1.81520000       0.02490000      -1.32610000
H        0.84970000      -1.45440000      -1.49900000
H        0.31340000       0.05350000      -2.25860000
H        1.69030000      -0.19620000       1.23700000
H        0.23690000       0.26710000       3.20570000
H       -1.13870000      -0.50520000       2.40250000
H        1.41800000      -1.90820000       3.36410000
H       -1.40390000      -3.07990000       3.01150000
H        0.00710000      -3.94220000       3.62410000
H       -0.68870000      -2.60570000       4.55620000
H        1.70430000      -2.63360000       1.05520000
H       -1.08760000      -2.52970000       0.76080000
