19
Properties=species:S:1:pos:R:3 gdb_75738=T pbc="F F F"
C        0.11960000       1.49650000      -0.02690000
C       -0.05230000      -0.03520000       0.01910000
C       -1.54360000      -0.40310000      -0.00490000
C        0.70050000      -0.67310000      -1.13690000
C        1.86200000      -1.24760000      -0.79180000
C        2.05540000      -1.07910000       0.65930000
O        3.06050000      -1.18250000       1.32920000
C        0.70330000      -0.64400000       1.23610000
O        0.85320000       0.19470000       2.34810000
H        1.17500000       1.77920000       0.00580000
H       -0.31750000       1.90470000      -0.94400000
H       -0.37660000       1.95410000       0.83220000
H       -2.03140000      -0.00900000      -0.90320000
H       -1.68740000      -1.48840000       0.00860000
H       -2.05520000       0.01750000       0.86640000
H        0.31060000      -0.61890000      -2.14970000
H        2.59030000      -1.70400000      -1.44950000
H        0.17820000      -1.57390000       1.52150000
H        1.74980000       0.02690000       2.67640000
