18
Properties=species:S:1:pos:R:3 gdb_123405=T pbc="F F F"
C       -0.09310000       1.58970000      -0.04720000
C       -0.25110000       0.09760000      -0.29910000
C       -0.05690000      -0.87970000       0.82940000
C       -1.43700000      -0.64290000       0.26440000
C        1.33620000       2.03830000      -0.03340000
C        2.11150000       2.57840000      -1.03410000
N        3.32310000       2.75530000      -0.45490000
N        3.31730000       2.35870000       0.82990000
N        2.11770000       1.92450000       1.08440000
H       -0.64790000       2.15460000      -0.80580000
H       -0.53930000       1.83730000       0.92250000
H        0.09790000      -0.22570000      -1.27670000
H        0.43180000      -1.82370000       0.61570000
H        0.17420000      -0.47220000       1.80740000
H       -2.14350000      -0.08190000       0.86800000
H       -1.89170000      -1.42360000      -0.33560000
H        1.91110000       2.84250000      -2.05870000
H        4.16720000       3.13800000      -0.84940000
