16
Properties=species:S:1:pos:R:3 gdb_12471=T pbc="F F F"
O       -0.01170000      -0.17550000      -0.00720000
C       -0.02690000       1.04860000      -0.03200000
N       -1.22380000       1.71710000       0.15490000
C       -1.50970000       3.09930000      -0.15750000
C       -0.67320000       4.08840000       0.66530000
N        0.68360000       4.19780000       0.16990000
C        1.48570000       3.13770000      -0.13330000
C        1.20740000       1.81810000      -0.23910000
H       -2.00330000       1.08010000       0.21920000
H       -1.37470000       3.32700000      -1.22490000
H       -2.56310000       3.27100000       0.08020000
H       -1.12520000       5.08330000       0.60080000
H       -0.69960000       3.77060000       1.71780000
H        1.14740000       5.07580000       0.32520000
H        2.50830000       3.44480000      -0.33870000
H        2.03980000       1.17380000      -0.49240000
