15
Properties=species:S:1:pos:R:3 gdb_28087=T pbc="F F F"
O        0.12790000       1.30320000       0.32770000
C        0.09090000      -0.02000000       0.10600000
N        0.25870000      -0.63230000      -1.03520000
C        0.13450000      -1.98470000      -0.73280000
C        0.23010000      -3.02270000      -1.80550000
C       -0.99920000      -3.01770000      -2.70450000
O       -1.58800000      -4.00630000      -3.05690000
C       -0.11340000      -2.15330000       0.59940000
N       -0.13640000      -0.86930000       1.13650000
H        0.30370000       1.71760000      -0.52630000
H        1.09590000      -2.80210000      -2.44580000
H        0.35530000      -4.02720000      -1.39450000
H       -1.32250000      -2.00170000      -3.02040000
H       -0.26870000      -3.02780000       1.20770000
H       -0.27600000      -0.60920000       2.09770000
