20
Properties=species:S:1:pos:R:3 gdb_117009=T pbc="F F F"
C        0.46020000       1.30360000       0.22290000
C       -0.40200000       0.14360000      -0.28270000
N        0.16920000      -0.53270000      -1.43590000
C        0.83190000      -1.72420000      -1.33680000
O        0.95640000      -2.34560000      -0.29490000
C        1.37240000      -2.19440000      -2.60360000
C        1.84040000      -2.62260000      -3.62940000
C        2.41820000      -3.17120000      -4.84980000
C        3.11500000      -4.52690000      -4.63200000
H        1.44590000       0.94330000       0.53030000
H        0.60020000       2.06420000      -0.55290000
H       -0.01520000       1.78480000       1.08370000
H       -0.50960000      -0.61630000       0.49390000
H       -1.40470000       0.50050000      -0.54560000
H        0.16630000      -0.07120000      -2.33130000
H        1.62780000      -3.27610000      -5.60410000
H        3.13300000      -2.44790000      -5.26340000
H        3.92810000      -4.43300000      -3.90780000
H        2.40870000      -5.26910000      -4.25160000
H        3.53040000      -4.89410000      -5.57480000
