16
Properties=species:S:1:pos:R:3 gdb_86697=T pbc="F F F"
O       -0.19680000       1.11920000       1.22310000
C        0.00320000       0.13820000       0.23800000
C        0.51380000      -1.14940000       0.91710000
C       -0.93750000      -1.73660000       0.92090000
C       -1.62600000      -1.59720000       2.26260000
O       -2.11790000      -2.52530000       2.85010000
C       -1.31150000      -0.63900000      -0.14210000
C       -2.55070000       0.10640000      -0.02570000
N       -3.50180000       0.75650000       0.07880000
H       -0.76320000       1.81370000       0.86530000
H        0.57530000       0.52420000      -0.61400000
H        1.18230000      -1.73030000       0.27930000
H        0.98590000      -0.98880000       1.88760000
H       -1.05240000      -2.76540000       0.57940000
H       -1.62080000      -0.57130000       2.68570000
H       -1.23420000      -1.06190000      -1.14730000
