20
Properties=species:S:1:pos:R:3 gdb_99370=T pbc="F F F"
C        0.20640000       1.38570000      -0.10820000
C       -0.20690000      -0.06030000      -0.37020000
C       -1.55450000      -0.43060000       0.23290000
O       -2.27240000       0.39080000       0.76020000
C       -1.95430000      -1.89670000       0.14100000
C       -3.41710000      -2.13210000       0.53020000
N       -3.77330000      -3.54530000       0.55950000
C       -3.91340000      -4.28020000      -0.57160000
O       -3.72180000      -3.86020000      -1.69520000
H        1.16470000       1.60660000      -0.58630000
H       -0.54400000       2.07940000      -0.49480000
H        0.30340000       1.57760000       0.96380000
H       -0.27060000      -0.26340000      -1.44880000
H        0.54410000      -0.76900000       0.00470000
H       -1.77520000      -2.27160000      -0.87210000
H       -1.28580000      -2.47070000       0.79820000
H       -3.61770000      -1.70420000       1.51350000
H       -4.06620000      -1.61950000      -0.18570000
H       -3.96450000      -3.98600000       1.44410000
H       -4.22580000      -5.32220000      -0.35850000
