15
Properties=species:S:1:pos:R:3 gdb_18971=T pbc="F F F"
C       -0.04840000       1.59070000       0.01330000
C        1.46090000       1.25220000      -0.00920000
C        1.14700000       0.16000000       1.05030000
O        2.05240000      -0.93410000       1.15390000
C        2.43570000      -1.41650000      -0.05010000
N        2.05360000      -0.97140000      -1.17240000
C        1.13400000       0.14300000      -1.06920000
C       -0.00070000       0.04450000       0.00950000
H       -0.43300000       2.07000000       0.91760000
H       -0.44660000       2.05860000      -0.88960000
H        2.31190000       1.93240000      -0.01850000
H        0.90610000       0.46730000       2.06820000
H        3.12570000      -2.25000000       0.05120000
H        0.83080000       0.49480000      -2.05640000
H       -0.82910000      -0.66310000       0.02150000
