12
Properties=species:S:1:pos:R:3 gdb_123978=T pbc="F F F"
C       -0.01330000       1.49920000      -0.04940000
N        1.35930000       1.99790000       0.11080000
C        2.34460000       1.23890000       0.25110000
O        2.37820000      -0.16730000       0.28740000
C        1.15820000      -0.69990000       0.14690000
C       -0.00130000       0.00660000      -0.01400000
N       -0.98600000      -0.93180000      -0.11590000
N       -0.57470000      -2.09530000      -0.03790000
O        0.98310000      -1.98150000       0.15450000
H       -0.62510000       1.93950000       0.74750000
H       -0.40780000       1.90000000      -0.99130000
H        3.35850000       1.60550000       0.36970000
