18
Properties=species:S:1:pos:R:3 gdb_128490=T pbc="F F F"
C        0.01210000       1.41820000      -0.17140000
O        0.02750000       0.01490000       0.07800000
C       -1.19730000      -0.58300000       0.05950000
C       -1.91760000      -1.01200000       1.13380000
C       -1.67730000      -0.94190000       2.59690000
O       -3.03140000      -1.62490000       0.69400000
N       -3.05650000      -1.60600000      -0.70500000
C       -1.96270000      -0.98730000      -1.07930000
C       -1.64160000      -0.80410000      -2.52660000
H        1.04900000       1.75590000      -0.11690000
H       -0.38890000       1.64820000      -1.16650000
H       -0.58590000       1.94770000       0.58100000
H       -2.45770000      -0.36370000       3.10280000
H       -1.66540000      -1.94200000       3.04240000
H       -0.71120000      -0.46660000       2.77990000
H       -1.72460000       0.24680000      -2.82470000
H       -0.61620000      -1.12380000      -2.73620000
H       -2.33040000      -1.38890000      -3.13910000
