19
Properties=species:S:1:pos:R:3 gdb_90490=T pbc="F F F"
O        0.28220000       1.42290000       0.15950000
C        0.05710000       0.04720000       0.26290000
C        0.03300000      -0.64860000       1.66860000
C       -1.31180000      -1.28980000       1.29900000
C       -2.38640000      -0.29410000       0.96890000
C       -2.72310000       1.01020000       1.63040000
C       -2.58570000       1.24970000       3.07570000
O       -1.68430000       1.85420000       2.13970000
C       -1.32090000      -0.56370000      -0.06380000
H       -0.24020000       1.85230000       0.84950000
H        0.80840000      -0.42840000      -0.37450000
H        0.83430000      -1.38240000       1.78280000
H        0.04450000       0.01900000       2.53150000
H       -1.56740000      -2.32410000       1.49710000
H       -3.31440000      -0.79590000       0.69200000
H       -3.50020000       1.57220000       1.10900000
H       -3.25000000       1.94620000       3.58360000
H       -2.15020000       0.47110000       3.69860000
H       -1.59490000      -0.95370000      -1.03790000
