14
Properties=species:S:1:pos:R:3 gdb_30007=T pbc="F F F"
C        0.00550000       1.47510000       0.03700000
N       -0.01290000       0.02710000       0.05050000
C       -0.09580000      -0.83300000      -1.04990000
N       -0.09420000      -2.11360000      -0.74770000
C       -0.00600000      -2.10860000       0.62180000
C        0.04270000      -0.83550000       1.10040000
O        0.12850000      -0.82290000       2.44420000
C        0.12660000      -2.19860000       2.71820000
N        0.05030000      -2.98640000       1.69760000
H        0.93110000       1.85830000       0.47720000
H       -0.05690000       1.81380000      -0.99860000
H       -0.84520000       1.88200000       0.59190000
H       -0.15390000      -0.42070000      -2.04670000
H        0.19010000      -2.44800000       3.76460000
