19
Properties=species:S:1:pos:R:3 gdb_106994=T pbc="F F F"
C        0.12450000       1.35760000      -0.20580000
O       -0.17700000      -0.01050000       0.05640000
C        0.49160000      -0.51420000       1.13940000
C        1.94310000      -0.98840000       1.05020000
C        0.88690000      -1.97480000       1.43760000
C        0.52450000      -1.81000000       2.92870000
C        1.54730000      -2.08950000       4.02220000
C        0.11350000      -0.34560000       2.58710000
O       -0.45760000       0.51030000       3.20370000
H        1.19200000       1.49280000      -0.42790000
H       -0.46490000       1.64580000      -1.07830000
H       -0.14880000       1.99110000       0.64550000
H        2.28240000      -1.05220000       0.02080000
H        2.70120000      -0.65990000       1.75440000
H        0.64630000      -2.83740000       0.83030000
H       -0.41160000      -2.33960000       3.14840000
H        2.51130000      -1.61680000       3.81230000
H        1.18730000      -1.70180000       4.98020000
H        1.71970000      -3.16450000       4.13630000
