18
Properties=species:S:1:pos:R:3 gdb_23062=T pbc="F F F"
C        0.97710000       1.00740000       0.11620000
C       -0.08320000      -0.05660000       0.04070000
N       -0.86900000      -0.37430000       1.00270000
O       -0.57700000       0.35210000       2.16340000
C       -0.23110000      -0.83410000      -1.20310000
C       -1.11500000      -2.01430000      -1.43570000
C        0.37130000      -2.16390000      -1.67100000
C        0.76290000      -1.39190000      -2.92160000
O        0.08980000      -0.19300000      -2.44920000
H        1.80850000       0.67350000       0.74760000
H        1.35230000       1.23810000      -0.88050000
H        0.57160000       1.90990000       0.58030000
H       -1.25790000       0.04500000       2.77130000
H       -1.48500000      -2.49050000      -0.53540000
H       -1.80540000      -1.99080000      -2.27460000
H        0.98900000      -2.86960000      -1.13270000
H        1.84020000      -1.21490000      -3.01440000
H        0.36090000      -1.73950000      -3.88060000
