16
Properties=species:S:1:pos:R:3 gdb_78342=T pbc="F F F"
C       -0.16790000       1.30760000      -0.02520000
N        0.09990000      -0.12520000       0.11400000
C        1.53290000      -0.46890000      -0.13280000
C        0.93720000      -0.46630000       1.26140000
C        0.99390000      -1.98110000       1.31220000
C        1.37780000      -2.87760000       2.40810000
O        0.05070000      -2.85870000       1.87230000
C        1.58390000      -1.98820000      -0.11620000
O        2.03680000      -2.83390000      -0.82700000
H        0.65340000       1.95450000       0.32350000
H       -0.36240000       1.53010000      -1.07790000
H       -1.06740000       1.54610000       0.54970000
H        2.20270000       0.24250000      -0.59690000
H        1.13500000       0.24060000       2.05730000
H        1.96260000      -3.76700000       2.18110000
H        1.48430000      -2.47660000       3.41500000
