19
Properties=species:S:1:pos:R:3 gdb_68125=T pbc="F F F"
C       -0.00820000       1.55570000       0.02900000
C        0.02520000       0.04530000       0.02700000
C        0.96720000      -0.78430000      -0.91710000
C        0.61290000      -1.93220000       0.10410000
C        0.65820000      -0.79400000       1.19410000
C       -0.91460000      -2.01600000      -0.11990000
C       -1.28810000      -0.73790000      -0.16880000
C        1.38040000      -3.14550000       0.21090000
C        2.02840000      -4.15500000       0.30110000
H        0.99180000       1.97570000       0.17710000
H       -0.39590000       1.94360000      -0.91980000
H       -0.65180000       1.93560000       0.83060000
H        0.65000000      -0.93180000      -1.95170000
H        2.01690000      -0.47900000      -0.86340000
H        1.67890000      -0.48950000       1.44620000
H        0.05800000      -0.95020000       2.09300000
H       -1.48200000      -2.93080000      -0.20710000
H       -2.26860000      -0.30440000      -0.31030000
H        2.60040000      -5.04570000       0.38080000
