19
Properties=species:S:1:pos:R:3 gdb_17320=T pbc="F F F"
C       -0.09330000       1.53850000       0.01940000
N        0.17850000       0.10580000       0.06770000
C        1.29870000      -0.67140000      -0.38160000
C        2.72300000      -0.21760000       0.08980000
C        2.75590000       1.03700000       0.91580000
C        2.24480000      -0.23660000       1.53340000
C        0.82360000      -0.71760000       1.04740000
C        0.05420000      -1.75110000       1.81630000
H        0.54350000       2.04990000      -0.70970000
H       -1.13550000       1.69140000      -0.28680000
H        0.03680000       2.01540000       0.99680000
H        1.15880000      -1.38650000      -1.18750000
H        3.62150000      -0.66870000      -0.31150000
H        3.75290000       1.30920000       1.25340000
H        2.12880000       1.89190000       0.71500000
H        2.73480000      -0.69760000       2.38190000
H       -0.36630000      -1.32480000       2.73610000
H       -0.77050000      -2.13600000       1.21120000
H        0.70000000      -2.58720000       2.10700000
