14
Properties=species:S:1:pos:R:3 gdb_5026=T pbc="F F F"
N        0.04440000       1.38300000       0.13930000
C       -0.03110000       0.01340000       0.04480000
C       -1.17300000      -0.71550000       0.01740000
N       -1.08720000      -2.10540000      -0.01720000
C        0.12210000      -2.71060000      -0.02210000
N        1.25620000      -2.09100000      -0.01130000
C        1.26650000      -0.69600000       0.00820000
N        2.33580000       0.01790000      -0.01340000
H        0.97430000       1.71850000      -0.08410000
H       -0.71970000       1.92460000      -0.23250000
H       -2.16880000      -0.29380000       0.03070000
H       -1.92710000      -2.65880000      -0.03080000
H        0.10100000      -3.79830000      -0.04010000
H        3.15050000      -0.59540000      -0.04670000
