24
Properties=species:S:1:pos:R:3 gdb_10360=T pbc="F F F"
C       -0.63020000       1.15760000      -0.27550000
C       -0.17200000      -0.29050000      -0.08500000
C        0.75290000      -0.48150000       1.12330000
O        0.02690000      -0.16590000       2.31610000
C        0.54370000       0.90100000       3.07840000
C        1.33920000      -1.90690000       1.23270000
C        2.38530000      -1.98420000       2.35330000
C        0.25520000      -2.97580000       1.43610000
H        0.22010000       1.82930000      -0.44120000
H       -1.29740000       1.24970000      -1.13800000
H       -1.17300000       1.50900000       0.60650000
H       -1.05000000      -0.93360000       0.03900000
H        0.35170000      -0.63940000      -0.98410000
H        1.59720000       0.21920000       1.02320000
H        0.55720000       1.84500000       2.51370000
H       -0.11300000       1.02450000       3.94460000
H        1.56330000       0.70170000       3.43960000
H        1.84870000      -2.10430000       0.27890000
H        1.92120000      -1.79660000       3.32680000
H        2.84610000      -2.97660000       2.39000000
H        3.18560000      -1.24970000       2.21000000
H       -0.42560000      -3.04340000       0.58270000
H        0.71000000      -3.96220000       1.57250000
H       -0.33900000      -2.74850000       2.32620000
