19
Properties=species:S:1:pos:R:3 gdb_97309=T pbc="F F F"
C        0.48110000       1.57460000      -0.52180000
N        0.84420000       0.21240000      -0.85630000
C        0.14550000      -0.71500000      -0.34810000
N        0.42010000      -2.04630000      -0.60200000
C        1.50230000      -2.48810000      -1.47680000
C        1.60440000      -3.99740000      -1.17460000
C        0.19850000      -4.37960000      -0.68520000
C       -0.36960000      -3.08360000      -0.11450000
O       -1.33040000      -2.94640000       0.60700000
H        0.25700000       2.13090000      -1.43950000
H       -0.38620000       1.65210000       0.15270000
H        1.33330000       2.07660000      -0.04870000
H       -0.71290000      -0.58480000       0.31930000
H        1.24540000      -2.28720000      -2.52430000
H        2.41440000      -1.93160000      -1.25360000
H        1.93030000      -4.56690000      -2.04670000
H        2.33490000      -4.16400000      -0.37740000
H       -0.45340000      -4.69440000      -1.50920000
H        0.17490000      -5.16990000       0.06670000
