16
Properties=species:S:1:pos:R:3 gdb_8551=T pbc="F F F"
O        0.05680000       1.41600000       0.01580000
C        0.02850000       0.02090000       0.00200000
C        0.47570000      -0.72850000      -1.28530000
C       -0.68750000      -1.72780000      -1.06980000
O       -0.38350000      -2.68980000      -0.03520000
C       -0.74710000      -1.74710000       0.99800000
C        0.40120000      -0.75260000       1.29880000
C       -1.33910000      -0.75880000      -0.04470000
H        0.97790000       1.69960000       0.04150000
H        0.27230000      -0.09410000      -2.15440000
H        1.48780000      -1.13900000      -1.34200000
H       -1.16620000      -2.19010000      -1.93440000
H       -1.27460000      -2.22520000       1.82480000
H        1.40860000      -1.16470000       1.40610000
H        0.14780000      -0.13440000       2.16630000
H       -2.33410000      -0.32440000      -0.06930000
