17
Properties=species:S:1:pos:R:3 gdb_52036=T pbc="F F F"
N       -0.03550000       1.38350000      -0.00490000
C       -0.00540000       0.11740000      -0.07230000
N       -1.15370000      -0.67320000      -0.00040000
C       -1.04460000      -2.13000000       0.01550000
C       -1.09890000      -2.71380000       1.44070000
C       -1.13200000      -4.22580000       1.41230000
O       -0.30610000      -4.93920000       1.91960000
C       -2.42030000      -0.11240000       0.08480000
O       -3.42530000      -0.77960000       0.18580000
H        0.90110000       1.76890000      -0.09680000
H        0.89680000      -0.49230000      -0.19580000
H       -1.87210000      -2.52760000      -0.57710000
H       -0.10760000      -2.40690000      -0.47560000
H       -0.24460000      -2.38680000       2.03940000
H       -2.02610000      -2.36210000       1.90920000
H       -2.00280000      -4.65520000       0.86440000
H       -2.39510000       0.98440000       0.04510000
