15
Properties=species:S:1:pos:R:3 gdb_46823=T pbc="F F F"
O       -0.00620000       0.04760000       0.22870000
C       -0.00590000       1.23370000       0.04420000
C       -1.25130000       2.10050000      -0.20310000
O       -0.80900000       3.35590000      -0.69870000
C        0.57040000       3.48560000      -0.48760000
C        1.07570000       3.37620000       0.90170000
C        1.18430000       2.15470000      -0.05160000
C        2.45960000       1.66090000      -0.45210000
C        3.53550000       1.24510000      -0.79110000
H       -1.89860000       1.62380000      -0.94500000
H       -1.82390000       2.21090000       0.72860000
H        1.05130000       4.12190000      -1.22000000
H        2.02680000       3.83810000       1.13710000
H        0.36910000       3.32220000       1.72270000
H        4.48210000       0.86900000      -1.09100000
