20
Properties=species:S:1:pos:R:3 gdb_52402=T pbc="F F F"
O        0.22300000       0.51210000       1.14110000
C        0.10820000       1.35930000       0.28100000
N        1.06130000       1.68200000      -0.63460000
C        2.37820000       1.06520000      -0.65140000
C        3.46810000       1.94600000      -0.02580000
C        4.84330000       1.29110000      -0.07020000
C        5.57510000       1.25290000      -1.43420000
O        6.66150000       2.05300000      -0.93010000
C        6.04640000       2.15630000       0.37010000
H       -0.81140000       1.96290000       0.14530000
H        0.86830000       2.43820000      -1.27200000
H        2.28540000       0.13000000      -0.09360000
H        2.63950000       0.81420000      -1.68660000
H        3.50790000       2.91240000      -0.54730000
H        3.19120000       2.15910000       1.01370000
H        4.81150000       0.31680000       0.42580000
H        5.91470000       0.26770000      -1.77630000
H        5.04880000       1.75080000      -2.26140000
H        5.80220000       3.19580000       0.62830000
H        6.68080000       1.73550000       1.15960000
