14
Properties=species:S:1:pos:R:3 gdb_9870=T pbc="F F F"
C       -0.31100000       1.45090000      -0.27550000
C       -0.00710000      -0.01550000      -0.05140000
C        0.98780000      -0.71920000      -0.89460000
O        1.32020000      -0.31190000       0.42440000
C       -1.06030000      -0.79660000       0.54830000
C       -1.97770000      -1.40940000       1.04170000
C       -3.03670000      -2.17320000       1.64940000
O       -4.21510000      -1.93660000       1.51260000
H        0.55030000       1.94260000      -0.73350000
H       -1.18090000       1.56680000      -0.92820000
H       -0.53010000       1.94350000       0.67590000
H        0.89960000      -1.79270000      -1.04960000
H        1.46410000      -0.16080000      -1.69970000
H       -2.68230000      -3.02000000       2.27110000
