19
Properties=species:S:1:pos:R:3 gdb_96539=T pbc="F F F"
O        0.08540000       1.49660000       0.15320000
C        0.05910000       0.07230000       0.08640000
C       -1.41530000      -0.37060000       0.17500000
O       -2.06980000      -0.55580000      -1.06210000
C       -2.01640000       0.52870000      -1.98500000
C       -0.91880000       0.29010000      -3.02430000
C        0.52060000       0.35480000      -2.46520000
C        0.69670000      -0.48150000      -1.20580000
O        1.29200000      -1.53250000      -1.18480000
H        1.00050000       1.77980000       0.24980000
H        0.60540000      -0.36910000       0.93000000
H       -1.46480000      -1.34350000       0.67030000
H       -1.93600000       0.37160000       0.79870000
H       -2.99050000       0.55840000      -2.48620000
H       -1.87190000       1.48260000      -1.46310000
H       -1.09010000      -0.69750000      -3.46610000
H       -1.01680000       1.02750000      -3.82930000
H        1.23120000      -0.01260000      -3.20920000
H        0.75930000       1.39630000      -2.22800000
