17
Properties=species:S:1:pos:R:3 gdb_73343=T pbc="F F F"
O        0.18660000       1.37080000      -0.13560000
C        0.07590000      -0.01170000      -0.12630000
C        0.77690000      -0.71600000      -1.29610000
C        0.26960000      -2.17470000      -1.23250000
C       -0.94520000      -2.11280000      -0.30040000
C       -0.74650000      -1.64450000       1.14140000
C       -1.32600000      -0.71790000       0.01170000
C        0.34820000      -0.65320000       1.25000000
O        0.95720000      -0.18640000       2.18230000
H        0.52120000       1.62820000       0.73540000
H        0.47420000      -0.22150000      -2.22520000
H        1.86360000      -0.63220000      -1.21400000
H       -0.02850000      -2.54140000      -2.21870000
H        1.02880000      -2.86150000      -0.84620000
H       -1.72180000      -2.86450000      -0.39410000
H       -1.26210000      -2.11490000       1.96940000
H       -2.29630000      -0.24350000       0.00340000
