20
Properties=species:S:1:pos:R:3 gdb_103139=T pbc="F F F"
C       -0.31000000       1.50420000      -0.06610000
C        0.11820000       0.05600000      -0.01820000
O        1.40430000      -0.16320000      -0.71630000
C        1.95500000      -0.73140000       0.40040000
N        3.06720000      -1.29020000       0.58940000
C        0.73410000      -0.55630000       1.27850000
C        0.90740000       0.34650000       2.49690000
C        0.18580000      -1.94010000       1.67980000
O        1.08630000      -2.61880000       2.52530000
H        0.45370000       2.16540000       0.34980000
H       -0.49790000       1.80460000      -1.10120000
H       -1.23700000       1.64210000       0.50010000
H       -0.63710000      -0.58960000      -0.47930000
H        3.64490000      -1.29510000      -0.25260000
H        1.46080000       1.25970000       2.26520000
H       -0.06830000       0.62790000       2.90790000
H        1.45500000      -0.20070000       3.26710000
H       -0.75220000      -1.82840000       2.23640000
H       -0.03490000      -2.52240000       0.76970000
H        1.94860000      -2.61300000       2.08200000
