15
Properties=species:S:1:pos:R:3 gdb_133592=T pbc="F F F"
F        0.34710000       0.14450000      -0.12270000
C       -0.01470000       1.42750000      -0.02340000
F        1.09500000       2.17470000      -0.16640000
F       -0.82390000       1.70040000      -1.05980000
C       -0.69630000       1.76350000       1.29290000
N       -1.86530000       0.90060000       1.63600000
C       -1.30560000       0.72460000       3.00110000
C       -0.04810000      -0.06800000       2.89460000
C       -0.00680000       1.42180000       2.61680000
H       -0.94900000       2.82800000       1.24450000
H       -2.71970000       1.44620000       1.64300000
H       -1.92080000       0.80060000       3.88870000
H        0.41210000      -0.33940000       3.83940000
H        0.06560000      -0.79210000       2.09690000
H        0.62930000       2.10030000       3.16820000
