23
Properties=species:S:1:pos:R:3 gdb_108329=T pbc="F F F"
C        0.12280000       1.51960000      -0.17340000
C       -0.03540000       0.02540000       0.13330000
C       -1.45690000      -0.50730000       0.05750000
C       -1.62500000      -2.06150000       0.00100000
C       -2.47630000      -1.92220000      -1.30310000
C       -2.33650000      -0.37340000      -1.22810000
C       -3.37590000       0.44010000      -0.42410000
C       -3.90070000      -0.31000000       0.76680000
C       -2.52770000       0.29450000       0.84720000
H        1.17650000       1.81250000      -0.13180000
H       -0.24860000       1.76170000      -1.17470000
H       -0.42270000       2.14370000       0.54060000
H        0.58860000      -0.54940000      -0.56390000
H        0.36370000      -0.18470000       1.13680000
H       -0.67830000      -2.58770000      -0.15040000
H       -2.12930000      -2.51650000       0.85750000
H       -1.98940000      -2.35230000      -2.18180000
H       -3.49650000      -2.31270000      -1.25860000
H       -1.95570000       0.13710000      -2.11400000
H       -3.89080000       1.31500000      -0.80420000
H       -4.65810000       0.22190000       1.33510000
H       -4.05720000      -1.38370000       0.74570000
H       -2.29390000       1.03710000       1.60220000
