21
Properties=species:S:1:pos:R:3 gdb_92336=T pbc="F F F"
C       -0.04940000       1.36420000      -0.00790000
C       -0.25220000      -0.08100000       0.40490000
O        0.05900000      -0.98870000      -0.68360000
C        0.96060000      -1.75420000       0.13270000
C        2.43280000      -1.52580000      -0.22030000
O        2.80200000      -0.30740000       0.41670000
C        2.12540000      -0.30080000       1.67520000
C        2.28240000       1.05260000       2.34850000
C        0.72170000      -0.83830000       1.36040000
H        0.98070000       1.54100000      -0.32260000
H       -0.71050000       1.58360000      -0.85290000
H       -0.30690000       2.04930000       0.80640000
H       -1.29520000      -0.22770000       0.72040000
H        0.68050000      -2.81170000       0.17790000
H        3.04470000      -2.36100000       0.15970000
H        2.59370000      -1.42060000      -1.29570000
H        2.59650000      -1.05880000       2.33040000
H        1.86620000       1.86330000       1.75070000
H        1.78240000       1.04500000       3.32210000
H        3.34330000       1.26060000       2.51370000
H        0.23940000      -1.27710000       2.23450000
