15
Properties=species:S:1:pos:R:3 gdb_129851=T pbc="F F F"
N        0.09520000       1.36810000       0.06240000
C       -0.04500000      -0.01630000       0.04810000
C       -1.16400000      -0.82880000       0.03660000
C       -0.62720000      -2.13110000       0.12980000
O       -1.40130000      -3.24920000       0.15520000
C       -0.81520000      -4.45300000      -0.09880000
N       -1.50120000      -5.49820000       0.05820000
N        0.69040000      -2.16120000       0.19560000
N        1.03200000      -0.83670000       0.12260000
H        0.81900000       1.71250000      -0.55650000
H       -0.77510000       1.84280000      -0.13380000
H       -2.19750000      -0.54190000      -0.05270000
H        0.22050000      -4.36380000      -0.43210000
H       -0.94280000      -6.31180000      -0.19400000
H        1.98590000      -0.57520000       0.30040000
