16
Properties=species:S:1:pos:R:3 gdb_98097=T pbc="F F F"
C        0.16430000       1.38690000      -0.32410000
N        0.07320000      -0.01400000       0.02910000
C        0.75560000      -0.56590000       1.05170000
O        1.52090000       0.00900000       1.80980000
C        0.46430000      -2.07370000       1.19800000
O       -0.31610000      -2.63680000       0.46410000
C        1.18950000      -2.75720000       2.31550000
C        0.43740000      -3.72560000       3.14710000
O        1.35250000      -4.16780000       2.16600000
H        0.86350000       1.85810000       0.36820000
H        0.53300000       1.51230000      -1.34770000
H       -0.81010000       1.88000000      -0.24040000
H       -0.52090000      -0.64510000      -0.48990000
H        2.02440000      -2.21590000       2.74700000
H        0.73950000      -3.86260000       4.18410000
H       -0.61200000      -3.90080000       2.91750000
