19
Properties=species:S:1:pos:R:3 gdb_106590=T pbc="F F F"
C        0.04270000       1.38590000      -0.00130000
O       -0.03410000      -0.02310000       0.00770000
C       -1.32750000      -0.55760000       0.01950000
C       -1.35610000      -2.10960000       0.03200000
C       -2.91670000      -2.13410000       0.04080000
C       -3.14580000      -1.24790000       1.28220000
C       -2.20650000      -0.30420000       1.27160000
C       -3.15960000      -1.26760000      -1.21200000
C       -2.22030000      -0.32410000      -1.22670000
H        1.10410000       1.64460000      -0.01410000
H       -0.43450000       1.82400000      -0.88940000
H       -0.41560000       1.83430000       0.89160000
H       -0.91610000      -2.54510000      -0.86830000
H       -0.90610000      -2.53080000       0.93410000
H       -3.40750000      -3.10630000       0.05120000
H       -3.96120000      -1.37290000       1.98240000
H       -2.07130000       0.51850000       1.95990000
H       -3.98260000      -1.40390000      -1.90110000
H       -2.09230000       0.48740000      -1.92970000
