13
Properties=species:S:1:pos:R:3 gdb_132927=T pbc="F F F"
F        0.03300000      -0.00860000       0.00350000
C       -0.01830000       1.32500000       0.01070000
C       -1.18930000       2.00120000       0.02900000
N       -1.19380000       3.36320000       0.03560000
C       -0.05300000       4.18230000       0.02510000
N       -0.24810000       5.45200000       0.03390000
C        1.19220000       3.43120000       0.00540000
C        1.19720000       2.07800000      -0.00130000
F        2.33170000       1.38960000      -0.01920000
H       -2.14560000       1.49590000       0.03870000
H       -2.06790000       3.86800000       0.04940000
H        0.63890000       5.94980000       0.02490000
H        2.12830000       3.97450000      -0.00400000
