23
Properties=species:S:1:pos:R:3 gdb_105669=T pbc="F F F"
C        0.18470000       1.67420000       0.30520000
C        0.00920000       0.16400000       0.09150000
C        0.64290000      -0.40550000      -1.19470000
C        2.21210000      -0.46760000      -1.11870000
C        2.10050000      -1.98240000      -0.80210000
C        0.63150000      -1.96800000      -1.30140000
C       -0.41300000      -2.79720000      -0.56940000
C        0.13660000       0.31290000      -2.42130000
O       -0.48650000      -0.20260000      -3.31700000
H        1.23640000       1.97330000       0.24380000
H       -0.37180000       2.26350000      -0.42920000
H       -0.18120000       1.96010000       1.29590000
H        0.44840000      -0.36550000       0.94560000
H       -1.05950000      -0.08160000       0.09990000
H        2.68570000      -0.27570000      -2.08600000
H        2.68890000       0.16900000      -0.36940000
H        2.79700000      -2.64960000      -1.31510000
H        2.16610000      -2.17920000       0.27250000
H        0.59700000      -2.21910000      -2.36580000
H       -0.42900000      -2.59030000       0.50570000
H       -1.41650000      -2.61090000      -0.96630000
H       -0.20280000      -3.86530000      -0.69360000
H        0.40840000       1.39210000      -2.47650000
