20
Properties=species:S:1:pos:R:3 gdb_70840=T pbc="F F F"
C       -0.00290000       1.50260000       0.03380000
C        0.05860000      -0.00120000      -0.00390000
C        0.86300000      -0.81710000      -1.04780000
C        0.77370000      -1.95060000      -0.00900000
C        1.61960000      -3.19070000      -0.02350000
C        0.65720000      -0.91080000       1.15520000
C       -0.75190000      -1.46680000       1.46490000
C       -1.23130000      -0.82680000       0.21760000
N       -0.72240000      -2.23500000       0.18030000
H        0.99940000       1.94380000       0.02520000
H       -0.54710000       1.89700000      -0.83300000
H       -0.51770000       1.85390000       0.93540000
H        0.42770000      -0.98270000      -2.03850000
H        1.89050000      -0.44850000      -1.14340000
H        2.68490000      -2.94070000      -0.05970000
H        1.43810000      -3.79610000       0.87060000
H        1.37960000      -3.80620000      -0.89770000
H        1.45020000      -0.59800000       1.83080000
H       -1.26300000      -1.81490000       2.35440000
H       -2.23540000      -0.63770000      -0.14450000
