18
Properties=species:S:1:pos:R:3 gdb_67992=T pbc="F F F"
C       -0.04340000       1.46070000      -0.01860000
C       -0.00680000      -0.04810000      -0.01390000
C        0.99760000      -0.77940000      -0.88320000
C        0.36570000      -2.17310000      -1.06430000
O        0.80820000      -3.08860000      -1.69250000
N       -0.84310000      -2.24430000      -0.25290000
C       -0.32700000      -2.24740000       1.18800000
C       -0.52780000      -0.74030000       1.25610000
C       -1.28790000      -0.83320000      -0.04590000
H        0.85830000       1.88340000       0.43800000
H       -0.11120000       1.84750000      -1.04170000
H       -0.90570000       1.83960000       0.53990000
H        1.12060000      -0.28560000      -1.85410000
H        1.99900000      -0.89670000      -0.45540000
H       -1.02550000      -2.80390000       1.81700000
H        0.68020000      -2.66030000       1.31680000
H       -0.76150000      -0.16080000       2.14140000
H       -2.26690000      -0.49550000      -0.36150000
