15
Properties=species:S:1:pos:R:3 gdb_32020=T pbc="F F F"
C        0.13380000       1.51600000       0.00680000
C       -0.06400000       0.00190000       0.00380000
C       -1.49710000      -0.43620000       0.01430000
N       -2.49070000       0.39400000       0.02430000
C       -3.72680000      -0.20100000       0.03280000
N       -4.00430000      -1.46750000       0.03190000
C       -2.95080000      -2.35360000       0.02130000
O       -2.99460000      -3.54160000       0.01860000
O       -1.63680000      -1.76070000       0.01230000
H        1.20140000       1.75050000      -0.00150000
H       -0.32960000       1.97560000      -0.86900000
H       -0.31480000       1.97020000       0.89310000
H        0.40690000      -0.46330000      -0.87180000
H        0.42140000      -0.46870000       0.86850000
H       -4.56870000       0.48950000       0.04110000
