14
Properties=species:S:1:pos:R:3 gdb_132802=T pbc="F F F"
N       -0.05900000       1.39120000      -0.15840000
C       -0.02240000       0.01710000      -0.07130000
N       -1.17640000      -0.64550000       0.00930000
C       -1.14600000      -1.98270000       0.03720000
C        0.01800000      -2.73630000      -0.00360000
C        1.20890000      -2.02410000      -0.07450000
F        2.39810000      -2.65140000      -0.10740000
C        1.22190000      -0.64450000      -0.11150000
O        2.36850000       0.09480000      -0.17440000
H        0.77790000       1.87910000       0.11940000
H       -0.92690000       1.80140000       0.15020000
H       -2.11100000      -2.47790000       0.09980000
H        0.01750000      -3.81790000       0.02440000
H        3.11700000      -0.51370000      -0.17400000
