16
Properties=species:S:1:pos:R:3 gdb_78057=T pbc="F F F"
C        0.08750000       1.55710000       0.10370000
C        0.11310000       0.03940000       0.06040000
C        1.31240000      -0.70610000      -0.63870000
N        2.15220000      -0.42730000       0.57880000
C        3.02700000       0.57980000       0.86970000
O        3.17370000       1.07940000       1.96340000
C        0.83320000      -0.76300000       1.21400000
C        0.84600000      -1.94130000       0.19350000
O        0.60940000      -3.09620000       0.09430000
H        1.03990000       1.98780000       0.41730000
H       -0.16710000       1.95970000      -0.88190000
H       -0.67750000       1.89620000       0.80880000
H       -0.86920000      -0.36610000      -0.20850000
H        1.69560000      -0.61930000      -1.65290000
H        3.65360000       0.83100000      -0.00920000
H        0.68010000      -0.73040000       2.28840000
