23
Properties=species:S:1:pos:R:3 gdb_40178=T pbc="F F F"
C        0.03920000       1.53600000       0.00010000
C        1.32640000       0.74210000       0.03370000
C       -0.00770000       0.03230000       0.01270000
C       -0.43820000      -0.69260000       1.27570000
C        0.23540000      -2.07260000       1.36120000
C        0.10160000      -2.88620000       0.08510000
C       -1.23170000      -3.09610000      -0.58400000
C       -0.20350000      -2.19360000      -1.22840000
C       -0.43510000      -0.67970000      -1.26480000
H       -0.25560000       2.06940000       0.89830000
H       -0.21890000       2.04800000      -0.92190000
H        1.93710000       0.72040000      -0.86300000
H        1.89790000       0.74060000       0.95670000
H       -0.17820000      -0.10300000       2.16190000
H       -1.53190000      -0.79710000       1.28720000
H        1.30360000      -1.91970000       1.56200000
H       -0.16400000      -2.63660000       2.21360000
H        0.78680000      -3.72790000       0.02840000
H       -1.43570000      -4.06090000      -1.03590000
H       -2.10700000      -2.62110000      -0.15000000
H        0.29040000      -2.59790000      -2.10640000
H       -1.49900000      -0.47530000      -1.44930000
H        0.10520000      -0.24950000      -2.11490000
