19
Properties=species:S:1:pos:R:3 gdb_7993=T pbc="F F F"
C        0.40570000       1.47070000      -0.27890000
C        0.04840000       0.00170000      -0.01010000
C        0.35120000      -0.99490000      -1.15530000
N        1.58130000      -1.74050000      -0.80580000
C        2.80640000      -1.15390000      -1.34030000
C        1.57950000      -1.82660000       0.65330000
C        0.86640000      -0.56530000       1.16310000
O        0.93790000      -0.09410000       2.26830000
H        1.44240000       1.58020000      -0.61250000
H       -0.24190000       1.89210000      -1.05370000
H        0.28270000       2.05740000       0.63580000
H       -1.00700000      -0.04440000       0.28410000
H       -0.47300000      -1.71220000      -1.25600000
H        0.47570000      -0.50360000      -2.12350000
H        3.04750000      -0.14640000      -0.95490000
H        3.65210000      -1.80800000      -1.10630000
H        2.72940000      -1.08820000      -2.42960000
H        0.99790000      -2.69930000       0.98960000
H        2.58340000      -1.92140000       1.07230000
