21
Properties=species:S:1:pos:R:3 gdb_88595=T pbc="F F F"
C       -0.46250000       1.26030000       0.32680000
C        0.01060000      -0.17110000       0.18650000
C        1.39400000      -0.46880000      -0.33220000
C        1.06730000      -0.76780000       1.11090000
C        1.70220000       0.01900000       2.21740000
C        0.92480000       0.29320000       3.49590000
O       -0.33590000      -0.30470000       3.65470000
C        2.06810000      -0.68490000       3.52000000
O        1.74170000      -2.02710000       3.68460000
H        0.34630000       1.92040000       0.65340000
H       -0.83760000       1.64300000      -0.62860000
H       -1.27640000       1.35510000       1.05650000
H       -0.76450000      -0.86410000      -0.13310000
H        1.53390000      -1.30010000      -1.01430000
H        2.04280000       0.37970000      -0.52940000
H        0.94030000      -1.81820000       1.35330000
H        2.37540000       0.81580000       1.91440000
H        1.01560000       1.26150000       3.98220000
H       -0.79190000      -0.27140000       2.80610000
H        2.99740000      -0.41070000       4.01070000
H        0.80000000      -2.03790000       3.91330000
