19
Properties=species:S:1:pos:R:3 gdb_63006=T pbc="F F F"
C        0.09280000       1.51400000       0.01220000
C       -0.01650000      -0.01680000       0.00180000
C       -1.48070000      -0.48350000      -0.00110000
C        0.70080000      -0.63650000      -1.21150000
O        2.09180000      -0.34260000      -1.33410000
C        1.72110000      -1.60190000      -0.76940000
C        1.72140000      -1.61220000       0.75070000
O        2.09230000      -0.36080000       1.33230000
C        0.70120000      -0.65300000       1.20630000
H        1.14300000       1.81220000       0.01400000
H       -0.39190000       1.94630000      -0.86960000
H       -0.39140000       1.93410000       0.90020000
H       -2.00790000      -0.10460000      -0.88270000
H       -1.55540000      -1.57670000      -0.00850000
H       -2.00760000      -0.11650000       0.88570000
H        0.16170000      -0.72060000      -2.15450000
H        2.01390000      -2.48570000      -1.32870000
H        2.01440000      -2.50360000       1.29780000
H        0.16250000      -0.74990000       2.14830000
