16
Properties=species:S:1:pos:R:3 gdb_44550=T pbc="F F F"
O        0.01710000      -0.00980000       0.15450000
C       -0.03240000       1.19360000       0.06160000
C       -1.30240000       2.06260000       0.01850000
C       -0.80610000       3.50970000       0.03530000
C       -0.69160000       4.21420000       1.40090000
O       -0.00500000       3.31820000       2.28010000
C        0.77930000       4.12500000       1.40230000
C        0.76770000       3.43050000       0.01160000
N        1.05750000       2.02980000      -0.06130000
H       -1.86490000       1.81480000      -0.88590000
H       -1.92580000       1.80630000       0.87790000
H       -1.22270000       4.14660000      -0.74510000
H       -1.35780000       4.94000000       1.85240000
H        1.53550000       4.76110000       1.84820000
H        1.25750000       4.02100000      -0.76740000
H        1.98240000       1.64180000       0.04150000
