20
Properties=species:S:1:pos:R:3 gdb_107432=T pbc="F F F"
C       -0.36160000       1.48010000       0.08580000
C        0.18920000       0.04910000       0.02990000
C        0.78120000      -0.31990000      -1.30790000
O        1.81640000      -1.32340000      -1.29870000
C        2.15200000      -0.00390000      -1.75240000
C        2.14380000       0.15250000      -3.26380000
N        0.76100000      -0.08830000      -3.74070000
C        0.23230000      -1.44470000      -3.54810000
C       -0.07820000      -0.38130000      -2.55690000
H        0.42280000       2.21340000      -0.12750000
H       -1.16710000       1.63610000      -0.63840000
H       -0.76500000       1.69780000       1.07900000
H        0.97050000      -0.08420000       0.78500000
H       -0.60570000      -0.66610000       0.27700000
H        2.87810000       0.53060000      -1.14130000
H        2.42090000       1.18030000      -3.52690000
H        2.84910000      -0.52270000      -3.75920000
H       -0.51770000      -1.73660000      -4.27870000
H        0.90740000      -2.23030000      -3.22550000
H       -1.05770000       0.08660000      -2.51840000
