19
Properties=species:S:1:pos:R:3 gdb_106240=T pbc="F F F"
C        0.03600000       1.50380000      -0.41430000
C        0.08360000       0.03570000      -0.04040000
C        1.35080000      -0.81900000      -0.01850000
C        2.48540000      -0.05760000       0.59750000
O        3.63730000       0.09200000       0.30030000
C        1.67480000       0.28020000       1.87410000
C        0.51370000      -0.52930000       1.26990000
C       -0.30600000      -1.50410000       2.05600000
O        0.57270000      -2.35480000       2.77830000
H        0.87350000       2.07090000      -0.00190000
H        0.06660000       1.61860000      -1.50250000
H       -0.89100000       1.96450000      -0.05570000
H       -0.73430000      -0.53490000      -0.48080000
H        1.43220000      -1.71740000      -0.61880000
H        2.12100000      -0.23260000       2.73020000
H        1.50380000       1.33070000       2.12420000
H       -0.97230000      -0.95320000       2.74060000
H       -0.94950000      -2.07870000       1.36990000
H        0.05150000      -2.86760000       3.40280000
