21
Properties=species:S:1:pos:R:3 gdb_38857=T pbc="F F F"
C       -0.06850000       1.51240000       0.08200000
C        1.47640000       1.45170000      -0.07190000
C        2.09200000       1.15220000       1.31030000
C        1.69230000      -0.29170000       1.68000000
C        2.53720000      -1.28980000       0.87840000
C        2.33770000      -1.00020000      -0.63410000
C        1.27410000       0.08120000      -0.80690000
C       -0.01500000      -0.03340000       0.06230000
O        0.31110000      -0.52730000       1.36280000
H       -0.47870000       1.97680000       0.98280000
H       -0.55960000       1.91770000      -0.80730000
H        1.98550000       2.26250000      -0.59820000
H        3.18520000       1.22850000       1.29070000
H        1.72880000       1.87140000       2.05250000
H        1.78400000      -0.47580000       2.75350000
H        3.59040000      -1.21090000       1.16860000
H        2.20450000      -2.30040000       1.13140000
H        3.27260000      -0.66770000      -1.09980000
H        2.03800000      -1.90840000      -1.16760000
H        1.01200000       0.23880000      -1.85620000
H       -0.87340000      -0.60790000      -0.29400000
