18
Properties=species:S:1:pos:R:3 gdb_54268=T pbc="F F F"
C       -0.03000000       1.62820000      -0.08910000
C       -0.00990000       0.10250000      -0.01760000
C        0.81840000      -0.54820000      -1.16340000
O        2.06620000      -0.83680000      -0.54860000
C        1.73290000      -1.18660000       0.76290000
O        0.70090000      -0.30120000       1.16830000
C       -1.44810000      -0.44030000      -0.03320000
N       -1.82640000      -1.08590000       1.09610000
O       -2.15520000      -0.28370000      -1.01220000
H        0.98900000       2.00520000      -0.21200000
H       -0.64600000       1.94960000      -0.93200000
H       -0.44680000       2.04750000       0.83110000
H        0.33520000      -1.46250000      -1.53320000
H        0.99240000       0.12810000      -2.00090000
H        1.37570000      -2.23170000       0.81660000
H        2.60420000      -1.04860000       1.40880000
H       -1.19550000      -1.13050000       1.87790000
H       -2.76830000      -1.43260000       1.16920000
