19
Properties=species:S:1:pos:R:3 gdb_105678=T pbc="F F F"
C       -0.15050000       1.13130000       0.49540000
O       -0.20170000      -0.21020000       0.04140000
C        0.51340000      -0.48410000      -1.14870000
C        2.05830000      -0.39770000      -1.04260000
C        2.10370000      -1.88390000      -0.60380000
C        0.67870000      -2.06200000      -1.19370000
O       -0.27930000      -2.81390000      -0.52590000
C       -0.16500000       0.12400000      -2.35240000
O        0.38480000       0.32960000      -3.40580000
H        0.86240000       1.42550000       0.79850000
H       -0.50250000       1.83600000      -0.27060000
H       -0.81120000       1.19510000       1.36250000
H        2.47850000      -0.22910000      -2.03640000
H        2.46380000       0.34540000      -0.35460000
H        2.89600000      -2.51720000      -1.00730000
H        2.08190000      -1.98730000       0.48410000
H        0.71680000      -2.40790000      -2.23020000
H       -0.50740000      -2.31690000       0.27090000
H       -1.25180000       0.32110000      -2.20740000
