16
Properties=species:S:1:pos:R:3 gdb_26283=T pbc="F F F"
C        0.25200000       1.49230000       0.26490000
C       -0.13550000       0.03460000      -0.03320000
O       -1.52740000      -0.09250000      -0.19010000
C        0.60990000      -0.47520000      -1.24980000
N       -0.12190000      -0.79130000      -2.32190000
C        0.57140000      -1.22690000      -3.37400000
N        1.89280000      -1.36760000      -3.42690000
C        2.51860000      -1.02270000      -2.29690000
N        1.94280000      -0.57250000      -1.18690000
H        1.32680000       1.58070000       0.44100000
H       -0.03010000       2.13800000      -0.57250000
H       -0.28770000       1.82730000       1.15380000
H        0.19050000      -0.58710000       0.81480000
H       -1.67760000      -0.35030000      -1.11160000
H        0.00510000      -1.49160000      -4.26430000
H        3.60200000      -1.12000000      -2.28670000
