15
Properties=species:S:1:pos:R:3 gdb_13466=T pbc="F F F"
C       -0.04550000       1.39530000       0.39780000
C        0.10600000      -0.02510000      -0.09950000
O        1.16750000      -0.51090000      -0.41570000
C       -1.18260000      -0.83060000      -0.12010000
C       -1.07860000      -2.33940000      -0.44860000
N       -1.54640000      -2.60440000       0.92110000
C       -1.63490000      -1.29830000       1.30840000
O       -1.92060000      -0.74550000       2.33560000
H        0.93290000       1.86700000       0.49320000
H       -0.66630000       1.97360000      -0.29660000
H       -0.56740000       1.38730000       1.36190000
H       -1.97830000      -0.28590000      -0.63460000
H       -1.75760000      -2.69890000      -1.22640000
H       -0.05550000      -2.66550000      -0.64600000
H       -1.64410000      -3.45740000       1.45130000
