14
Properties=species:S:1:pos:R:3 gdb_123968=T pbc="F F F"
C        0.00350000       1.48950000      -0.08220000
N        1.33290000       2.06080000       0.18100000
C        2.35970000       1.31890000       0.29940000
N        2.43020000      -0.06470000       0.18830000
C        1.19820000      -0.71600000       0.12360000
C        0.05310000      -0.00030000      -0.01160000
O       -0.99900000      -0.83000000      -0.06750000
N       -0.54360000      -2.14490000       0.03640000
C        0.76470000      -2.06430000       0.14480000
H       -0.70950000       1.90300000       0.64380000
H       -0.34370000       1.83640000      -1.06700000
H        3.32420000       1.78790000       0.49160000
H        3.23460000      -0.53670000       0.56760000
H        1.34130000      -2.97340000       0.23770000
