23
Properties=species:S:1:pos:R:3 gdb_104414=T pbc="F F F"
C       -0.31530000       1.51970000      -0.14990000
O       -0.30960000       0.10970000      -0.17460000
C        0.60420000      -0.50600000      -1.07050000
C        0.32680000      -0.12450000      -2.53050000
C        2.09260000      -0.27970000      -0.69020000
C        2.76110000      -1.63580000      -1.00400000
O        1.72200000      -2.53660000      -1.39290000
C        0.47790000      -2.04360000      -0.90340000
C        0.19130000      -2.50880000       0.52340000
H        0.67930000       1.93610000       0.06600000
H       -0.67690000       1.95730000      -1.09060000
H       -0.99640000       1.81580000       0.65190000
H        0.59730000       0.91350000      -2.74550000
H        0.91200000      -0.76770000      -3.19350000
H       -0.73400000      -0.26220000      -2.76250000
H        2.54990000       0.54260000      -1.24540000
H        2.15620000      -0.04220000       0.37500000
H        3.47030000      -1.57640000      -1.83600000
H        3.30360000      -2.02650000      -0.13220000
H       -0.29110000      -2.44260000      -1.57390000
H        0.92800000      -2.12170000       1.23410000
H       -0.79500000      -2.16870000       0.84640000
H        0.22320000      -3.60140000       0.55800000
