21
Properties=species:S:1:pos:R:3 gdb_88211=T pbc="F F F"
O       -0.00920000       1.40070000      -0.04250000
C        0.00630000       0.00270000       0.01100000
C       -0.47300000      -0.70660000       1.25780000
C       -1.31690000      -0.69730000      -0.00990000
C       -2.60220000       0.11510000      -0.01770000
C       -3.77210000      -0.77170000       0.41960000
O       -3.87550000      -1.94040000      -0.37910000
C       -2.71220000      -2.74600000      -0.30310000
C       -1.46990000      -1.99180000      -0.79210000
H        0.69230000       1.72750000       0.53010000
H        0.82090000      -0.46240000      -0.54670000
H        0.02290000      -1.62400000       1.55940000
H       -0.80250000      -0.07790000       2.07900000
H       -2.52030000       0.99060000       0.63150000
H       -2.79680000       0.48240000      -1.03320000
H       -3.65240000      -1.05120000       1.48070000
H       -4.72600000      -0.24670000       0.31400000
H       -2.55470000      -3.08670000       0.73510000
H       -2.90870000      -3.62670000      -0.92160000
H       -1.59070000      -1.76640000      -1.85960000
H       -0.58290000      -2.62750000      -0.68840000
