16
Properties=species:S:1:pos:R:3 gdb_66755=T pbc="F F F"
C        0.02300000       1.52280000       0.05580000
C        0.07610000       0.02140000       0.01390000
C       -1.16620000      -0.85030000       0.34170000
C       -0.52120000      -1.56010000       1.51510000
C       -0.52980000      -2.25340000       0.18900000
N        0.89870000      -1.96350000      -0.15450000
C        0.81370000      -0.95580000       1.01560000
C        0.76560000      -0.80310000      -1.08120000
O        1.17660000      -0.63840000      -2.18300000
H        1.01670000       1.95680000      -0.09280000
H       -0.62870000       1.90640000      -0.73650000
H       -0.36930000       1.87930000       1.01380000
H       -2.20750000      -0.63930000       0.14090000
H       -0.89540000      -1.85370000       2.48500000
H       -1.05180000      -3.13240000      -0.16280000
H        1.72690000      -0.72890000       1.55970000
