22
Properties=species:S:1:pos:R:3 gdb_100138=T pbc="F F F"
C        0.02720000       1.43400000      -0.48710000
C       -0.10060000       0.02020000       0.08670000
C       -1.50990000      -0.59860000       0.01370000
C       -1.47320000      -2.02230000       0.58760000
C       -2.54840000       0.25650000       0.75160000
O       -1.77290000      -0.66070000      -1.41400000
C       -3.04640000      -1.05150000      -1.84950000
C       -3.98030000       0.08170000      -2.02220000
N       -4.70930000       0.96510000      -2.17400000
H        1.07490000       1.74940000      -0.48650000
H       -0.33860000       1.46800000      -1.51600000
H       -0.53530000       2.16800000       0.09770000
H        0.57670000      -0.65160000      -0.45320000
H        0.21780000       0.00860000       1.13590000
H       -1.17950000      -1.99920000       1.64140000
H       -2.45090000      -2.51250000       0.53840000
H       -0.75140000      -2.63540000       0.04070000
H       -2.65690000       1.24180000       0.29490000
H       -3.53330000      -0.22010000       0.76440000
H       -2.23940000       0.39020000       1.79290000
H       -2.91970000      -1.52650000      -2.82900000
H       -3.52110000      -1.79180000      -1.19300000
