18
Properties=species:S:1:pos:R:3 gdb_95649=T pbc="F F F"
C        1.09540000       1.30220000      -0.10690000
C        0.09500000       0.15940000      -0.10810000
O        0.33120000      -0.61670000      -1.30260000
C        0.16800000      -1.97860000      -1.14760000
O        1.13830000      -2.52280000      -0.23230000
C        1.26390000      -1.81900000       0.91410000
N        2.17280000      -1.99800000       1.77570000
C        0.21160000      -0.75300000       1.15120000
O        0.48370000      -0.02040000       2.30880000
H        2.11630000       0.92120000      -0.00950000
H        1.01900000       1.85600000      -1.04620000
H        0.89580000       1.97550000       0.72770000
H       -0.92790000       0.55670000      -0.15700000
H       -0.83940000      -2.25140000      -0.79690000
H        0.37280000      -2.45560000      -2.10660000
H        2.82220000      -2.73690000       1.50970000
H       -0.74900000      -1.28240000       1.27080000
H        1.28010000      -0.43370000       2.68620000
