16
Properties=species:S:1:pos:R:3 gdb_69645=T pbc="F F F"
O       -0.02740000       1.38960000       0.15180000
C       -0.01430000       0.01590000       0.04110000
C       -0.22470000      -0.74290000      -1.24120000
C       -1.20620000      -0.90370000      -0.09660000
C       -0.64300000      -1.81070000       1.02890000
N        0.74400000      -2.24330000       0.70440000
C        0.54890000      -0.88910000       1.18170000
C       -1.33820000      -2.41570000       2.16310000
O       -0.78260000      -3.10770000       2.99250000
H        0.76650000       1.73660000      -0.27170000
H       -0.60810000      -0.11480000      -2.03950000
H        0.42340000      -1.55600000      -1.54260000
H       -2.25470000      -0.64930000      -0.17750000
H        1.03260000      -2.82120000       1.49790000
H        0.96080000      -0.52370000       2.11490000
H       -2.42250000      -2.18640000       2.23170000
