21
Properties=species:S:1:pos:R:3 gdb_80479=T pbc="F F F"
C        0.21690000       1.73760000      -0.17710000
C        0.14490000       0.23250000      -0.02320000
C        1.25660000      -0.74950000      -0.31870000
C        2.70770000      -0.27490000      -0.35800000
C        3.04040000       0.32040000       1.03380000
O        3.14020000       1.74850000       1.03320000
C        1.85950000      -0.08130000       1.98570000
O        1.50900000       0.94620000       2.88670000
C        0.73250000      -0.59600000       1.09680000
H        1.20310000       2.14540000       0.04260000
H       -0.04160000       2.02190000      -1.20410000
H       -0.50400000       2.22320000       0.48970000
H       -0.82650000      -0.15600000      -0.32550000
H        1.01440000      -1.62550000      -0.91150000
H        3.35920000      -1.13160000      -0.56260000
H        2.90440000       0.46860000      -1.13860000
H        3.98090000      -0.08780000       1.41990000
H        4.04230000       1.99770000       0.81900000
H        2.19830000      -0.93510000       2.58890000
H        1.90500000       1.75510000       2.53610000
H        0.09170000      -1.35200000       1.53850000
