19
Properties=species:S:1:pos:R:3 gdb_66514=T pbc="F F F"
C        0.12470000       1.52160000      -0.04910000
C       -0.00710000       0.03790000       0.05520000
C        0.40530000      -1.09140000      -0.87180000
C        0.85870000      -1.01980000       0.66520000
C       -0.30520000      -1.83120000       1.19090000
C       -0.52020000      -3.13340000       0.91900000
C       -1.31090000      -3.18000000      -0.39200000
C       -1.03530000      -1.71970000      -0.90340000
C       -1.22990000      -0.88230000       0.37820000
H        1.14150000       1.80560000      -0.34180000
H       -0.56330000       1.93250000      -0.79720000
H       -0.09280000       2.00910000       0.90830000
H        1.15390000      -1.07740000      -1.65640000
H        1.91600000      -0.99980000       0.90330000
H        0.19490000      -3.91540000       1.15660000
H       -0.91110000      -3.98360000      -1.02210000
H       -2.39760000      -3.33880000      -0.33290000
H       -1.58160000      -1.42490000      -1.80570000
H       -2.19860000      -0.56270000       0.75910000
