16
Properties=species:S:1:pos:R:3 gdb_5902=T pbc="F F F"
C        0.04810000       1.39860000       0.12170000
C        0.02710000      -0.05460000       0.05200000
C        0.00130000      -1.25850000      -0.00390000
C        0.00250000      -2.72310000      -0.07150000
C       -1.40960000      -3.29820000      -0.21610000
O        0.87510000      -3.18850000      -1.10410000
C        0.67370000      -3.21370000       1.23190000
O        0.08270000      -3.64310000       2.18290000
H        0.97350000       1.80200000      -0.30290000
H       -0.79250000       1.83580000      -0.42770000
H       -0.01850000       1.74070000       1.16020000
H       -1.89480000      -2.88870000      -1.10580000
H       -1.34740000      -4.38510000      -0.30990000
H       -2.00950000      -3.05480000       0.66310000
H        0.76630000      -2.60690000      -1.86350000
H        1.77930000      -3.11920000       1.19460000
