21
Properties=species:S:1:pos:R:3 gdb_110567=T pbc="F F F"
C       -0.28070000       1.31780000       0.08850000
O        0.36440000       0.08780000      -0.15050000
C        0.86940000      -0.50760000       1.01570000
C       -0.08480000      -1.34220000       1.89960000
C       -0.08330000      -2.53270000       0.87850000
C        0.29170000      -3.55570000       1.96480000
C        1.09380000      -2.29060000       2.34580000
C        2.02800000      -2.09920000       3.51110000
C        1.36820000      -1.94150000       0.83220000
H        0.39670000       2.04730000       0.56050000
H       -0.60230000       1.71200000      -0.87860000
H       -1.16380000       1.20260000       0.73500000
H        1.53660000       0.19090000       1.54610000
H       -0.92180000      -1.02880000       2.52650000
H       -0.75140000      -2.64430000       0.02680000
H       -0.50290000      -3.85920000       2.65590000
H        0.87310000      -4.42790000       1.64530000
H        2.85520000      -2.81680000       3.47030000
H        2.45980000      -1.09290000       3.52570000
H        1.50340000      -2.25170000       4.46110000
H        2.19830000      -2.30610000       0.22490000
