17
Properties=species:S:1:pos:R:3 gdb_16072=T pbc="F F F"
C       -0.44410000       1.39940000       0.11250000
N        0.35920000       0.19630000      -0.08370000
C        0.83520000      -0.43410000       1.09660000
C        2.30550000      -0.48660000       1.51980000
O        2.14160000      -1.83550000       2.05980000
C        0.79360000      -1.88370000       1.57570000
C       -0.00420000      -0.85550000       2.30730000
O        0.29730000      -0.51100000       3.62150000
H        0.15790000       2.16260000       0.61570000
H       -0.73820000       1.79710000      -0.86300000
H       -1.35420000       1.24470000       0.71450000
H       -0.09830000      -0.45730000      -0.70490000
H        2.98900000      -0.49970000       0.66560000
H        2.64930000       0.22250000       2.28030000
H        0.44500000      -2.81250000       1.13550000
H       -1.07350000      -0.86310000       2.11170000
H        1.09190000      -1.01360000       3.84920000
