18
Properties=species:S:1:pos:R:3 gdb_62501=T pbc="F F F"
C       -0.08750000       1.54830000       0.02910000
C        0.00470000       0.03750000      -0.01440000
C       -1.19110000      -0.69050000       0.56800000
C        0.70160000      -0.62350000      -1.19300000
C        1.26130000       0.13260000      -2.27170000
C        1.72400000       0.75650000      -3.18930000
C        1.36120000      -0.62290000       0.20180000
C        2.53880000       0.15830000       0.44660000
N        3.48780000       0.78340000       0.66360000
H        0.79380000       2.02610000      -0.40160000
H       -0.96450000       1.88700000      -0.53240000
H       -0.19320000       1.89320000       1.06290000
H       -2.10440000      -0.42260000       0.02600000
H       -1.07320000      -1.77700000       0.51180000
H       -1.33380000      -0.42030000       1.61980000
H        0.31020000      -1.59600000      -1.47990000
H        2.14290000       1.30900000      -3.99380000
H        1.36090000      -1.58030000       0.71290000
