14
Properties=species:S:1:pos:R:3 gdb_6422=T pbc="F F F"
C       -0.33900000       1.65860000      -0.04170000
C        0.00720000       0.17840000      -0.07240000
C        0.85160000      -0.33460000      -1.27560000
C        1.91370000      -0.57570000      -0.22660000
N        3.08530000      -1.00840000      -0.24050000
O        1.12770000      -0.13010000       0.82740000
C       -1.15110000      -0.65830000       0.25770000
N       -2.07730000      -1.30560000       0.49780000
H        0.54960000       2.24590000      -0.28610000
H       -1.12520000       1.87900000      -0.76920000
H       -0.69220000       1.94640000       0.95140000
H        0.47990000      -1.23370000      -1.76700000
H        1.09290000       0.42510000      -2.02010000
H        3.49590000      -1.03170000       0.69410000
