19
Properties=species:S:1:pos:R:3 gdb_118357=T pbc="F F F"
C       -0.33630000       1.90440000      -0.57490000
C       -0.22560000       0.42150000      -0.26970000
O        0.82730000      -0.11920000      -1.05710000
C        1.03740000      -1.49970000      -0.86140000
C       -0.03700000      -2.32480000      -1.58170000
O       -0.32550000      -3.45530000      -1.28990000
C        2.40520000      -1.83890000      -1.42530000
C        2.82510000      -3.21970000      -1.67910000
O        2.44300000      -2.35830000      -2.75740000
H        0.60410000       2.41330000      -0.34590000
H       -0.56320000       2.06280000      -1.63270000
H       -1.13240000       2.35630000       0.02370000
H       -0.01160000       0.25500000       0.79870000
H       -1.17630000      -0.09000000      -0.49060000
H        1.01490000      -1.75750000       0.21020000
H       -0.52410000      -1.77660000      -2.41690000
H        3.15660000      -1.08010000      -1.20910000
H        3.88400000      -3.46740000      -1.63520000
H        2.13480000      -4.03410000      -1.47000000
