21
Properties=species:S:1:pos:R:3 gdb_38505=T pbc="F F F"
C       -0.04140000       1.45970000       0.13830000
C        1.28670000       0.75500000       0.03710000
C        2.02440000       0.38510000       1.33370000
C        1.05350000      -0.55440000       2.00650000
C       -0.02280000      -0.80930000       1.25510000
C       -1.01620000      -1.70190000       1.94530000
C       -0.20610000      -2.19700000       3.18330000
C        0.98640000      -1.20560000       3.35920000
C       -0.01300000      -0.04920000      -0.02210000
H       -0.35540000       1.85910000       1.09810000
H       -0.34780000       2.05180000      -0.71850000
H        1.87010000       0.91970000      -0.86130000
H        2.98830000      -0.09960000       1.12440000
H        2.25360000       1.26880000       1.94440000
H       -1.91550000      -1.14160000       2.23940000
H       -1.36750000      -2.53370000       1.32310000
H       -0.82190000      -2.27610000       4.08300000
H        0.18780000      -3.19700000       2.97730000
H        1.91120000      -1.72040000       3.64700000
H        0.79020000      -0.46810000       4.15140000
H       -0.38170000      -0.48810000      -0.94330000
