17
Properties=species:S:1:pos:R:3 gdb_124535=T pbc="F F F"
C        0.01610000       1.55180000       0.07760000
C        0.02040000       0.02490000      -0.05390000
C       -1.40250000      -0.56750000      -0.00550000
C        0.72450000      -0.40790000      -1.29740000
N        1.19470000       0.33120000      -2.24000000
N        1.72480000      -0.58100000      -3.13090000
C        1.57800000      -1.87670000      -2.72580000
O        1.90570000      -2.91460000      -3.22280000
O        0.90870000      -1.74490000      -1.50280000
H        1.03080000       1.95670000       0.07090000
H       -0.53200000       2.01250000      -0.74910000
H       -0.46830000       1.83990000       1.01460000
H        0.58560000      -0.40370000       0.78550000
H       -2.02040000      -0.15510000      -0.80970000
H       -1.38370000      -1.65500000      -0.10980000
H       -1.87630000      -0.32080000       0.94880000
H        2.17260000      -0.27360000      -3.97560000
