21
Properties=species:S:1:pos:R:3 gdb_56159=T pbc="F F F"
C        0.01790000       1.41240000       0.46480000
C        0.09860000      -0.03980000       0.02620000
O        1.13550000      -0.53640000      -0.35090000
C       -1.20020000      -0.83340000       0.09000000
C       -1.04130000      -2.29440000      -0.33840000
C       -2.31360000      -3.10150000      -0.14990000
C       -3.47370000      -2.79140000      -1.07260000
C       -2.23340000      -4.42980000       0.47670000
O       -2.68130000      -3.29810000       1.22820000
H        0.99850000       1.88140000       0.37670000
H       -0.70810000       1.95810000      -0.14840000
H       -0.33090000       1.47820000       1.50150000
H       -1.58660000      -0.78510000       1.11700000
H       -1.94370000      -0.30610000      -0.52310000
H       -0.72280000      -2.34260000      -1.38560000
H       -0.23530000      -2.74280000       0.24850000
H       -3.19820000      -2.97640000      -2.11650000
H       -4.33700000      -3.41330000      -0.82430000
H       -3.78010000      -1.74350000      -0.98770000
H       -2.99640000      -5.17740000       0.26100000
H       -1.26440000      -4.83260000       0.76920000
