16
Properties=species:S:1:pos:R:3 gdb_30756=T pbc="F F F"
C        0.38480000       0.77720000      -0.47920000
O       -0.53250000       0.60460000       0.60480000
C       -1.50180000      -0.31420000       0.38200000
C       -1.46210000      -1.64100000       0.00300000
O       -0.37300000      -2.41010000      -0.36710000
C       -2.80600000      -2.11500000      -0.01860000
O       -3.17770000      -3.38040000      -0.35650000
C       -3.62810000      -1.08500000       0.36370000
N       -2.80920000       0.01290000       0.60030000
H        1.12380000       1.50680000      -0.14260000
H        0.87960000      -0.16590000      -0.73080000
H       -0.13130000       1.15830000      -1.36870000
H        0.12120000      -2.64820000       0.42510000
H       -2.37240000      -3.83460000      -0.63290000
H       -4.69490000      -1.03670000       0.49050000
H       -3.10930000       0.91790000       0.91480000
