23
Properties=species:S:1:pos:R:3 gdb_113773=T pbc="F F F"
C       -1.67960000       1.97700000       2.58440000
C       -1.27650000       1.12540000       1.39090000
C       -0.24340000       1.70780000       0.44560000
C        0.14400000       0.60440000       1.39610000
C       -2.35320000       0.17710000       0.90880000
C       -3.77820000       0.61640000       0.65840000
C       -2.95380000       0.08390000      -0.48470000
C       -2.62810000       1.01100000      -1.62330000
O       -1.48590000       0.51420000      -2.31850000
H       -0.83520000       2.57390000       2.94400000
H       -2.49190000       2.66820000       2.33330000
H       -2.02540000       1.35170000       3.41600000
H       -0.29430000       1.44750000      -0.60390000
H        0.11270000       2.71200000       0.65510000
H        0.77080000       0.84200000       2.24960000
H        0.32420000      -0.37660000       0.96810000
H       -2.28820000      -0.79470000       1.39520000
H       -4.59310000       0.02050000       1.05430000
H       -3.97610000       1.68430000       0.65330000
H       -3.17610000      -0.92680000      -0.81710000
H       -3.49530000       1.05720000      -2.30060000
H       -2.45170000       2.02850000      -1.24520000
H       -1.36110000       1.05000000      -3.10790000
