18
Properties=species:S:1:pos:R:3 gdb_103050=T pbc="F F F"
C        0.18030000       1.19050000       0.46540000
N       -0.05880000      -0.07850000      -0.21960000
C       -1.38330000      -0.59690000      -0.08520000
C       -2.44050000       0.11970000      -0.77860000
N       -3.23790000       0.72700000      -1.35820000
C       -1.62970000      -2.10360000       0.00550000
C       -0.48180000      -2.74460000       0.79550000
N       -0.68420000      -1.77090000       1.92740000
C       -1.85020000      -1.22790000       1.22050000
H        1.21090000       1.50330000       0.27820000
H       -0.49290000       2.00320000       0.15080000
H        0.06430000       1.03290000       1.54100000
H        0.19720000      -0.02190000      -1.19890000
H       -2.31640000      -2.60180000      -0.66600000
H       -0.71690000      -3.77410000       1.07830000
H        0.51510000      -2.69190000       0.35230000
H       -0.98210000      -2.26230000       2.76370000
H       -2.74660000      -0.88860000       1.72540000
