20
Properties=species:S:1:pos:R:3 gdb_11947=T pbc="F F F"
C        0.06390000       1.53360000       0.01500000
C       -0.00530000       0.03370000       0.07210000
C        1.15630000      -0.85830000      -0.27550000
C        0.55140000      -0.96780000       1.10130000
C        1.34520000      -0.73500000       2.34570000
O        2.11180000      -1.90490000       2.62100000
C       -0.73380000      -1.80040000       1.01340000
C       -1.30340000      -0.78320000      -0.02870000
H        1.05380000       1.90220000       0.30330000
H       -0.13590000       1.89680000      -1.00100000
H       -0.67440000       1.99720000       0.68000000
H        1.04450000      -1.67160000      -0.99000000
H        2.12440000      -0.36700000      -0.31450000
H        1.99830000       0.14320000       2.21000000
H        0.66640000      -0.50960000       3.18500000
H        2.54100000      -1.78400000       3.47360000
H       -0.61050000      -2.83540000       0.67990000
H       -1.30450000      -1.80280000       1.94600000
H       -2.17400000      -0.24320000       0.35360000
H       -1.54780000      -1.17320000      -1.02280000
