12
Properties=species:S:1:pos:R:3 gdb_5457=T pbc="F F F"
C       -0.00490000       1.52510000       0.13030000
C        0.01560000       0.04240000       0.01390000
C       -0.00400000      -0.74040000      -1.10720000
O        0.02850000      -2.05870000      -0.71260000
C        0.06590000      -1.99030000       0.62950000
N        0.06070000      -0.79240000       1.12000000
C       -0.04820000      -0.44230000      -2.48220000
N       -0.08490000      -0.15960000      -3.60550000
H        0.88660000       1.87840000       0.65810000
H       -0.04120000       1.99680000      -0.85380000
H       -0.87490000       1.85000000       0.70950000
H        0.09620000      -2.92940000       1.16030000
