18
Properties=species:S:1:pos:R:3 gdb_55160=T pbc="F F F"
N        0.08480000       1.03910000      -0.65340000
C        0.03270000      -0.25560000      -0.21640000
O        1.03150000      -0.94230000      -0.13990000
C       -1.36030000      -0.74270000       0.22250000
C       -2.51270000      -0.42390000      -0.78050000
C       -2.68780000      -1.70730000      -1.56620000
O       -1.44940000      -2.23090000      -2.06010000
C       -2.00790000      -2.80230000      -0.86670000
C       -1.37430000      -2.28060000       0.40500000
H        0.99410000       1.42940000      -0.83880000
H       -0.69870000       1.66380000      -0.58780000
H       -1.55260000      -0.24020000       1.17740000
H       -3.44340000      -0.19590000      -0.24770000
H       -2.29250000       0.42420000      -1.43520000
H       -3.55220000      -1.85130000      -2.20990000
H       -2.32040000      -3.83990000      -0.95110000
H       -0.35900000      -2.65180000       0.55750000
H       -1.99050000      -2.57420000       1.26230000
