19
Properties=species:S:1:pos:R:3 gdb_107214=T pbc="F F F"
O       -0.01570000       1.43780000       0.30460000
C       -0.01070000       0.07330000      -0.07950000
C       -1.38250000      -0.53860000      -0.00950000
C       -1.96230000      -1.13400000       1.24480000
C       -1.72270000      -2.00800000       0.02400000
C       -2.81780000      -2.20200000      -1.00410000
C       -4.16940000      -1.53870000      -0.80910000
C       -3.08150000      -0.83000000      -1.57070000
O       -2.28340000       0.11330000      -0.89210000
H       -0.68660000       1.86840000      -0.23720000
H        0.38700000      -0.04980000      -1.09980000
H        0.66320000      -0.44590000       0.60950000
H       -1.28130000      -1.27010000       2.07900000
H       -2.97230000      -0.87370000       1.53600000
H       -0.95100000      -2.76740000       0.07390000
H       -2.75280000      -3.07950000      -1.63560000
H       -4.99280000      -1.93590000      -1.39410000
H       -4.45600000      -1.17110000       0.16850000
H       -3.19560000      -0.60650000      -2.62600000
