20
Properties=species:S:1:pos:R:3 gdb_32895=T pbc="F F F"
C       -0.09410000       1.47620000      -0.04090000
N       -0.06290000       0.03020000      -0.01330000
C        0.07930000      -0.78660000      -1.10670000
C        0.15940000      -2.08690000      -0.66680000
C        0.06610000      -2.06930000       0.75740000
C        0.11590000      -3.24920000       1.68310000
C        1.52300000      -3.83420000       1.81690000
O        1.45210000      -4.94810000       2.69550000
C       -0.06440000      -0.74560000       1.12040000
H        0.90870000       1.91000000       0.05440000
H       -0.53200000       1.81590000      -0.98250000
H       -0.71330000       1.84850000       0.77920000
H        0.10290000      -0.36990000      -2.10160000
H        0.24810000      -2.96190000      -1.29370000
H       -0.23360000      -2.96560000       2.68190000
H       -0.54940000      -4.04800000       1.33400000
H        1.89510000      -4.12990000       0.82320000
H        2.20460000      -3.05910000       2.20170000
H        2.33470000      -5.31990000       2.77980000
H       -0.16630000      -0.29310000       2.09510000
