21
Properties=species:S:1:pos:R:3 gdb_109737=T pbc="F F F"
C        0.48700000       1.55270000       0.01090000
C        0.15320000       0.05600000       0.03320000
C        0.57270000      -0.60840000       1.33010000
C        0.73330000      -2.09710000       1.49370000
C        0.52380000      -3.07240000       0.35790000
N        1.88640000      -1.19720000       1.53900000
C        2.94320000      -1.16310000       0.62950000
N        3.66800000      -2.34130000       0.60960000
O        3.23780000      -0.19810000      -0.04910000
H        1.56820000       1.69230000       0.06920000
H        0.12500000       2.01680000      -0.91170000
H        0.01800000       2.07590000       0.85200000
H       -0.93020000      -0.08640000      -0.07810000
H        0.63090000      -0.43170000      -0.81940000
H        0.22010000      -0.07230000       2.21270000
H        0.47940000      -2.50860000       2.47130000
H        0.74670000      -2.63210000      -0.61550000
H        1.16270000      -3.95330000       0.47530000
H       -0.51740000      -3.41210000       0.35220000
H        3.62820000      -2.92480000       1.43050000
H        4.57840000      -2.25150000       0.18540000
