21
Properties=species:S:1:pos:R:3 gdb_90916=T pbc="F F F"
C       -0.04240000       1.61600000       0.05120000
C        0.01670000       0.09860000      -0.02370000
C        1.02840000      -0.63430000      -1.04970000
C        1.04960000      -1.78810000       0.01670000
C        1.71150000      -2.44930000       1.28590000
C        2.88550000      -1.55660000       1.68850000
C        2.13880000      -0.20240000       1.53230000
C        0.77330000      -0.75170000       1.04080000
O        0.58230000      -1.84170000       2.05920000
H        0.94310000       2.05570000       0.23090000
H       -0.42780000       2.03420000      -0.88520000
H       -0.70870000       1.94140000       0.85730000
H       -0.98140000      -0.31360000      -0.19780000
H        0.62610000      -0.88680000      -2.03290000
H        1.95600000      -0.07310000      -1.17200000
H        0.12660000      -2.35380000      -0.13320000
H        1.77470000      -3.53040000       1.41580000
H        3.20640000      -1.75470000       2.71310000
H        3.74770000      -1.66350000       1.02380000
H        2.00160000       0.31800000       2.48290000
H        2.62850000       0.48290000       0.83790000
