21
Properties=species:S:1:pos:R:3 gdb_119036=T pbc="F F F"
C        2.25240000       0.90220000      -0.37350000
C        1.37980000      -0.29120000      -0.08040000
O        1.87830000      -1.26680000       0.84550000
C        0.65360000      -0.56680000       1.17810000
C        0.82100000       0.32070000       2.40440000
O        1.34380000      -0.42290000       3.49440000
C       -0.59340000      -1.42930000       1.12710000
C       -0.71260000      -2.42580000       2.27910000
O       -1.89580000      -3.17950000       2.04630000
H        2.72310000       1.30280000       0.52580000
H        3.04870000       0.61410000      -1.06790000
H        1.66700000       1.69650000      -0.84930000
H        0.94260000      -0.74100000      -0.97510000
H        1.45940000       1.18490000       2.18050000
H       -0.15240000       0.70520000       2.72510000
H        2.11470000      -0.88720000       3.14480000
H       -1.48060000      -0.78380000       1.12430000
H       -0.60530000      -1.99420000       0.18930000
H        0.17900000      -3.07060000       2.29190000
H       -0.74990000      -1.90200000       3.24300000
H       -1.99920000      -3.80110000       2.77240000
