21
Properties=species:S:1:pos:R:3 gdb_94320=T pbc="F F F"
C       -0.31920000       1.41680000       0.08150000
C        0.05590000      -0.05130000      -0.05940000
C        1.38640000      -0.37630000      -0.77920000
O        1.92940000      -1.00870000       0.40200000
C        0.73900000      -0.73190000       1.13100000
C        0.78420000      -0.34020000       2.58330000
C        0.19220000      -1.68110000       2.15180000
C       -1.29880000      -1.91060000       2.25580000
O        0.97570000      -2.82310000       2.35700000
H        0.51940000       2.00130000       0.47360000
H       -0.60660000       1.84110000      -0.88650000
H       -1.16640000       1.54790000       0.76370000
H       -0.78920000      -0.62640000      -0.44910000
H        1.32320000      -1.07520000      -1.62090000
H        1.97680000       0.49900000      -1.07800000
H        1.76620000      -0.37980000       3.04380000
H        0.12630000       0.44300000       2.94920000
H       -1.86410000      -1.00940000       1.99960000
H       -1.60940000      -2.71780000       1.58460000
H       -1.57730000      -2.19360000       3.27880000
H        0.95220000      -3.03160000       3.29770000
