18
Properties=species:S:1:pos:R:3 gdb_83710=T pbc="F F F"
C       -0.69780000       1.37880000       0.14160000
C       -0.03190000       0.01480000      -0.03610000
C        0.85180000      -0.14320000      -1.27080000
O        1.63780000       1.02940000      -1.59080000
C        2.87740000       0.30840000      -1.42450000
C        2.13270000      -0.90810000      -0.83460000
N        2.02410000      -0.94010000       0.60180000
C        0.90760000      -0.33770000       1.13200000
O        0.70090000      -0.14950000       2.30920000
H        0.03330000       2.17970000       0.01080000
H       -1.50170000       1.52530000      -0.58540000
H       -1.11510000       1.44580000       1.14920000
H       -0.80290000      -0.76770000      -0.05420000
H        0.32720000      -0.52080000      -2.15420000
H        3.36490000       0.11190000      -2.38850000
H        3.57390000       0.82440000      -0.75500000
H        2.35130000      -1.88700000      -1.26710000
H        2.78110000      -1.21310000       1.20950000
