13
Properties=species:S:1:pos:R:3 gdb_131700=T pbc="F F F"
O        0.18570000       1.37570000      -0.03520000
C        0.03250000      -0.00780000      -0.06650000
C       -1.40050000      -0.44000000      -0.04450000
N       -2.33580000       0.42360000      -0.00140000
C       -3.65100000      -0.03200000       0.01730000
N       -4.62750000       0.76160000       0.06050000
O       -3.83810000      -1.41260000      -0.01430000
N       -2.72870000      -2.31490000      -0.06190000
N       -1.59070000      -1.85050000      -0.07570000
H       -0.70220000       1.76140000      -0.00510000
H        0.49570000      -0.44620000      -0.96700000
H        0.53600000      -0.49040000       0.78870000
H       -5.51170000       0.25290000       0.06790000
