17
Properties=species:S:1:pos:R:3 gdb_46669=T pbc="F F F"
O        0.02000000       0.01820000       0.12230000
C        0.02400000       1.21550000       0.04770000
C       -1.25160000       2.12660000       0.04980000
N       -0.80430000       3.53190000      -0.14100000
C        0.48490000       3.42580000      -0.80120000
C        1.90060000       3.87050000      -0.25540000
C        1.56590000       3.17070000       1.07090000
C        1.12100000       2.22890000      -0.10580000
N        2.47640000       2.52530000      -0.73320000
H       -1.89450000       1.75580000      -0.76240000
H       -1.80300000       1.99780000       0.98750000
H       -1.48560000       4.08240000      -0.64780000
H        0.44800000       3.36160000      -1.90050000
H        2.45550000       4.79440000      -0.42600000
H        2.42000000       2.79940000       1.63570000
H        0.77530000       3.60510000       1.67620000
H        2.38320000       2.46030000      -1.75400000
