18
Properties=species:S:1:pos:R:3 gdb_9044=T pbc="F F F"
C        0.10960000       1.57970000       0.01380000
C        0.00640000       0.04110000      -0.02980000
C       -1.45400000      -0.47080000       0.00740000
C       -2.19200000      -0.13410000       1.31960000
C       -3.53510000      -0.69920000       1.36150000
C       -4.63990000      -1.17240000       1.37070000
C        0.68570000      -0.48360000      -1.21390000
C        1.22610000      -0.90590000      -2.20130000
H        1.15370000       1.89550000      -0.05150000
H       -0.43160000       2.02470000      -0.82680000
H       -0.30620000       1.97770000       0.94340000
H        0.52200000      -0.35800000       0.85630000
H       -2.00610000      -0.05210000      -0.84090000
H       -1.45160000      -1.55630000      -0.12710000
H       -1.61070000      -0.51050000       2.17240000
H       -2.25750000       0.95240000       1.45150000
H       -5.61710000      -1.58690000       1.38950000
H        1.71110000      -1.28480000      -3.06650000
