15
Properties=species:S:1:pos:R:3 gdb_25723=T pbc="F F F"
C       -0.00920000       1.47230000       0.00430000
C       -0.00060000      -0.03750000       0.03760000
O        1.05260000      -0.68830000       0.07440000
C       -1.23590000      -0.76110000       0.02810000
C       -1.37110000      -2.13870000       0.05740000
O       -0.36820000      -3.01040000       0.09870000
C       -2.76770000      -2.41800000       0.03470000
C       -3.37370000      -1.19580000      -0.00700000
O       -2.48590000      -0.18210000      -0.01210000
H        1.01760000       1.83860000      -0.00990000
H       -0.54750000       1.83340000      -0.87800000
H       -0.53240000       1.86890000       0.88090000
H        0.44620000      -2.45560000       0.10230000
H       -3.24590000      -3.38360000       0.04740000
H       -4.41230000      -0.90600000      -0.03580000
