10
Properties=species:S:1:pos:R:3 gdb_2743=T pbc="F F F"
O       -0.09070000       0.05800000      -0.25110000
C       -0.02100000       1.21080000      -0.00090000
O       -1.01020000       2.07550000       0.36840000
C       -0.08720000       3.19980000       0.50880000
C        1.08350000       2.30900000       0.03000000
C        2.20280000       2.10360000       0.92640000
N        3.08710000       1.94870000       1.65370000
H       -0.36370000       4.01840000      -0.15610000
H       -0.03040000       3.53090000       1.54600000
H        1.43760000       2.54370000      -0.97720000
