14
Properties=species:S:1:pos:R:3 gdb_130137=T pbc="F F F"
N        0.01270000       1.38560000       0.13780000
C       -0.00290000      -0.01450000       0.04690000
N       -1.11650000      -0.66520000       0.13640000
N       -1.01880000      -2.00470000       0.11470000
C        0.14510000      -2.76530000      -0.08110000
O        0.07060000      -3.97200000      -0.16550000
N        1.32140000      -2.03390000      -0.13510000
C        1.25920000      -0.73640000      -0.06190000
N        2.40190000       0.00640000      -0.11820000
H        0.45360000       1.82200000      -0.66600000
H       -0.92900000       1.74590000       0.24720000
H       -1.89110000      -2.50730000       0.18410000
H        3.25950000      -0.51980000      -0.03350000
H        2.37990000       0.90990000       0.33050000
