18
Properties=species:S:1:pos:R:3 gdb_92806=T pbc="F F F"
O        0.01740000       1.38920000      -0.16760000
C        0.04450000      -0.01920000      -0.00850000
C        0.44000000      -0.44020000       1.45820000
C       -0.88260000      -0.40900000       2.23180000
C       -1.86630000      -0.48880000       1.34440000
C       -3.21680000      -0.05200000       0.85910000
C       -3.00910000       1.23590000       0.14770000
N       -2.70620000      -0.00080000      -0.59570000
C       -1.38950000      -0.58410000      -0.06280000
H        0.90380000       1.72390000      -0.00010000
H        0.71500000      -0.47470000      -0.75060000
H        0.91200000      -1.43300000       1.45970000
H        1.17900000       0.25640000       1.87440000
H       -0.94030000      -0.26330000       3.30360000
H       -4.19270000      -0.45270000       1.10530000
H       -3.89310000       1.73340000      -0.24200000
H       -2.19840000       1.88800000       0.44950000
H       -1.36040000      -1.61230000      -0.44230000
