25
Properties=species:S:1:pos:R:3 gdb_117985=T pbc="F F F"
C        0.04510000       1.37000000      -0.11880000
O        0.02130000      -0.03530000      -0.09810000
C       -1.28070000      -0.56050000       0.08740000
C       -1.17390000      -2.08810000       0.13320000
C       -0.41000000      -2.53360000       1.38890000
C       -2.55330000      -2.77640000      -0.07640000
C       -2.40700000      -4.30510000      -0.11090000
C       -3.59950000      -2.36950000       0.96660000
O       -3.10580000      -2.33860000      -1.32900000
H        1.08240000       1.67960000      -0.27050000
H       -0.57060000       1.77870000      -0.93610000
H       -0.31870000       1.80110000       0.82800000
H       -1.70920000      -0.17080000       1.02680000
H       -1.94190000      -0.25200000      -0.73460000
H       -0.56450000      -2.36740000      -0.74000000
H       -0.98740000      -2.34150000       2.30020000
H       -0.15930000      -3.59710000       1.36560000
H        0.52200000      -1.96810000       1.46180000
H       -2.13650000      -4.71720000       0.86500000
H       -3.35570000      -4.75150000      -0.42180000
H       -1.63420000      -4.60920000      -0.82760000
H       -3.79460000      -1.29500000       0.92830000
H       -4.54120000      -2.88620000       0.76180000
H       -3.27670000      -2.63110000       1.97750000
H       -2.50520000      -2.62160000      -2.02750000
