19
Properties=species:S:1:pos:R:3 gdb_104479=T pbc="F F F"
C        0.95370000      -0.81790000      -1.40470000
C        0.20350000      -0.14780000      -0.24520000
C        0.66710000      -0.63570000       1.12660000
C        1.97040000       0.01940000       1.54770000
O        2.53120000       0.86470000       0.89070000
C       -0.34870000      -0.82600000       2.31810000
C       -0.97630000      -2.05380000       1.61620000
C        0.56380000      -2.15270000       1.54840000
O        0.61160000      -1.74360000       2.97060000
H        0.78210000      -1.90000000      -1.42290000
H        0.62000000      -0.41420000      -2.36500000
H        2.02960000      -0.64300000      -1.32480000
H        0.38150000       0.93110000      -0.28490000
H       -0.87240000      -0.29410000      -0.36890000
H        2.37980000      -0.32640000       2.51290000
H       -0.81470000      -0.06110000       2.94040000
H       -1.43750000      -2.76700000       2.29980000
H       -1.54570000      -1.91830000       0.69760000
H        1.19810000      -2.98650000       1.24620000
