19
Properties=species:S:1:pos:R:3 gdb_106184=T pbc="F F F"
O        0.16330000       1.36750000      -0.08540000
C        0.02960000      -0.03970000       0.06220000
C       -1.39690000      -0.48950000       0.06330000
C       -2.04780000      -1.85840000      -0.10170000
C       -2.93530000      -1.62610000       1.12440000
C       -2.53950000      -0.11440000       1.04660000
O       -3.49000000       0.64720000       0.31760000
C       -3.54400000       0.08370000      -0.99840000
C       -2.27810000      -0.75650000      -1.12700000
H       -0.36290000       1.62870000      -0.84830000
H        0.58360000      -0.58610000      -0.71970000
H        0.51190000      -0.27580000       1.01780000
H       -1.57570000      -2.79170000      -0.38770000
H       -4.00450000      -1.85120000       1.05490000
H       -2.52160000      -2.10760000       2.01470000
H       -2.30840000       0.41100000       1.97180000
H       -4.45880000      -0.51270000      -1.12090000
H       -3.57350000       0.90120000      -1.72850000
H       -1.82520000      -0.89730000      -2.10230000
