19
Properties=species:S:1:pos:R:3 gdb_108408=T pbc="F F F"
C        0.01480000       1.53390000      -0.23590000
C        0.00460000       0.04150000       0.12350000
C       -1.37590000      -0.55240000       0.11770000
C       -2.42960000      -0.39640000       1.21670000
O       -2.93440000      -1.73860000       0.96870000
C       -1.90070000      -1.95150000       0.00780000
C       -2.06080000      -1.02710000      -1.18380000
C       -3.38200000      -0.56710000      -1.67140000
O       -3.59480000      -0.24480000      -2.81740000
H        1.03300000       1.93310000      -0.21800000
H       -0.39800000       1.69830000      -1.23600000
H       -0.58410000       2.11680000       0.47190000
H        0.63720000      -0.51240000      -0.58010000
H        0.44980000      -0.10410000       1.11670000
H       -1.98150000      -0.33980000       2.21560000
H       -3.20150000       0.37270000       1.11400000
H       -1.43390000      -2.92910000      -0.03880000
H       -1.33930000      -1.19350000      -1.97950000
H       -4.18900000      -0.55020000      -0.91170000
