18
Properties=species:S:1:pos:R:3 gdb_92190=T pbc="F F F"
O        0.07480000       1.38450000      -0.13260000
C        0.02580000      -0.02440000       0.00110000
C        0.71210000      -0.52130000       1.30740000
C       -0.37690000      -0.60210000       2.36710000
O       -1.19610000       0.61540000       2.25140000
C       -2.09040000      -0.11690000       1.39750000
C       -1.58960000      -1.48700000       1.86150000
N       -1.51980000      -1.95270000       0.47320000
C       -1.43120000      -0.52950000       0.02350000
H       -0.30540000       1.73130000       0.68620000
H        0.54310000      -0.42580000      -0.87690000
H        1.18670000      -1.50020000       1.17340000
H        1.49560000       0.18770000       1.58930000
H       -0.02630000      -0.74490000       3.39150000
H       -3.11500000       0.25220000       1.40550000
H       -2.06830000      -2.13950000       2.59270000
H       -0.72560000      -2.53960000       0.22560000
H       -1.96600000      -0.30010000      -0.90070000
