15
Properties=species:S:1:pos:R:3 gdb_48653=T pbc="F F F"
O       -0.11990000       0.00450000       0.05240000
C       -0.03370000       1.20880000       0.00440000
C        1.24660000       1.92910000       0.02970000
C        1.37170000       3.40360000       0.34410000
C        1.79900000       2.97400000      -1.01620000
N        3.14030000       2.37670000      -0.94400000
C        2.62240000       1.27130000      -0.06440000
C        1.21310000       3.43540000      -2.23060000
N        0.75910000       3.80470000      -3.22960000
H       -0.93310000       1.85840000      -0.07560000
H        0.42610000       3.93440000       0.39380000
H        2.13940000       3.73820000       1.03530000
H        3.43650000       2.02230000      -1.84710000
H        3.18010000       1.15830000       0.86930000
H        2.55630000       0.30730000      -0.57350000
