15
Properties=species:S:1:pos:R:3 gdb_69233=T pbc="F F F"
O       -0.00640000       1.39140000      -0.04300000
C       -0.05160000       0.01270000      -0.00450000
C       -0.41780000      -0.81360000      -1.21080000
C       -1.31340000      -0.81620000       0.02420000
C       -1.06280000      -1.93400000       0.98640000
N       -1.92900000      -2.77890000       1.36110000
N        0.28810000      -1.82440000       1.37480000
C        0.89380000      -0.65210000       0.95940000
O        1.95810000      -0.20720000       1.32210000
H        0.88720000       1.63260000       0.24010000
H       -0.79580000      -0.23870000      -2.04880000
H        0.14440000      -1.70440000      -1.47050000
H       -2.30890000      -0.40030000      -0.03770000
H       -1.54660000      -3.45280000       2.02690000
H        0.73510000      -2.44930000       2.02930000
