14
Properties=species:S:1:pos:R:3 gdb_56432=T pbc="F F F"
N       -0.02510000       1.23740000       0.47060000
C        0.08470000      -0.06910000       0.10690000
N        1.21080000      -0.62370000      -0.14140000
C       -1.26260000      -0.76360000       0.07250000
O       -2.29970000      -0.15930000       0.21490000
C       -1.34560000      -2.30240000      -0.11910000
O       -2.64590000      -2.74100000       0.11920000
C       -0.89030000      -2.65560000      -1.48210000
N       -0.54180000      -2.93630000      -2.54740000
H        0.78630000       1.82280000       0.36210000
H       -0.93760000       1.66050000       0.45740000
H        1.12090000      -1.60530000      -0.38790000
H       -0.66140000      -2.77700000       0.59790000
H       -3.20600000      -1.94770000       0.08480000
