21
Properties=species:S:1:pos:R:3 gdb_59123=T pbc="F F F"
C       -0.01590000       1.55910000       0.24570000
C        0.06000000       0.05230000      -0.01510000
O        0.96910000      -0.58600000       0.87910000
C       -1.31340000      -0.61380000       0.09150000
C       -1.48700000      -2.12520000       0.23390000
C       -1.59330000      -2.46450000       1.72960000
C       -1.45890000      -1.16600000       2.51960000
C       -2.23940000      -0.50500000       1.34670000
C       -2.79120000      -1.94440000       0.97560000
H        0.96700000       2.02850000       0.12080000
H       -0.70400000       2.04470000      -0.45430000
H       -0.36100000       1.75660000       1.26510000
H        0.40920000      -0.10380000      -1.05120000
H        1.81290000      -0.12780000       0.81470000
H       -1.89510000      -0.28010000      -0.77690000
H       -1.24190000      -2.89350000      -0.48900000
H       -1.41420000      -3.47690000       2.06920000
H       -2.07850000      -1.19850000       3.42130000
H       -0.46210000      -0.78700000       2.75100000
H       -2.84000000       0.38810000       1.50950000
H       -3.78160000      -2.33780000       0.79900000
