19
Properties=species:S:1:pos:R:3 gdb_37389=T pbc="F F F"
C       -0.04080000       1.49620000       0.17390000
C        1.28890000       0.80200000      -0.05120000
C       -0.00310000       0.01010000      -0.04080000
C       -0.15640000      -0.70580000      -1.36320000
O        1.00460000      -1.61700000      -1.38470000
C        1.68280000      -0.63240000      -2.15610000
C        1.95480000       0.78350000      -1.42680000
C        1.03580000       1.40660000      -2.51480000
C        0.38870000       0.02160000      -2.66080000
H       -0.24940000       1.81510000       1.18970000
H       -0.45950000       2.15350000      -0.57570000
H        1.95280000       0.71760000       0.80170000
H       -0.22010000      -0.62540000       0.81240000
H       -1.09100000      -1.25900000      -1.47890000
H        2.49180000      -1.02570000      -2.77420000
H        2.98820000       1.12950000      -1.38780000
H        0.44900000       2.29310000      -2.27510000
H        1.60370000       1.61550000      -3.42790000
H       -0.12040000      -0.27750000      -3.57770000
