18
Properties=species:S:1:pos:R:3 gdb_28209=T pbc="F F F"
C        0.12310000       1.44310000      -0.03310000
C       -0.08710000      -0.02590000      -0.01510000
C       -1.17270000      -0.82950000      -0.21300000
C       -0.69970000      -2.18180000      -0.12670000
C        0.61910000      -2.07360000       0.14180000
N        1.30750000      -3.24550000       0.44720000
C        0.34810000      -4.30390000      -0.00830000
C       -1.07330000      -3.63630000      -0.04530000
O        1.04760000      -0.80480000       0.22310000
H        0.81170000       1.75230000      -0.82960000
H       -0.83310000       1.94460000      -0.20160000
H        0.53670000       1.81000000       0.91410000
H       -2.17220000      -0.47620000      -0.41780000
H        2.22120000      -3.33100000       0.01560000
H        0.61630000      -4.64700000      -1.01560000
H        0.39080000      -5.16140000       0.66700000
H       -1.63510000      -3.86730000       0.86980000
H       -1.66180000      -4.02000000      -0.88510000
