19
Properties=species:S:1:pos:R:3 gdb_35628=T pbc="F F F"
C        0.06380000      -1.22460000       0.09270000
C        0.03540000      -0.02320000       0.05150000
C        0.00180000       1.43730000       0.01930000
C       -0.88930000       1.99900000       1.16160000
C       -0.76120000       3.49270000       1.30710000
C        0.35510000       4.15050000       0.98690000
C        1.56400000       3.46990000       0.46440000
C        2.17450000       2.32400000       1.26660000
C        1.40900000       2.03360000       0.01090000
H        0.08880000      -2.28560000       0.12070000
H       -0.46690000       1.74390000      -0.92680000
H       -1.92840000       1.71620000       0.96430000
H       -0.62310000       1.49610000       2.10050000
H       -1.61500000       4.03000000       1.70950000
H        0.40860000       5.22810000       1.11560000
H        2.25960000       4.09360000      -0.08760000
H        3.25200000       2.20310000       1.24270000
H        1.72130000       2.10050000       2.22580000
H        1.99870000       1.73150000      -0.84900000
