20
Properties=species:S:1:pos:R:3 gdb_10983=T pbc="F F F"
C       -0.02770000       1.51330000       0.05490000
C       -0.02920000       0.00370000       0.00030000
C        0.35240000      -0.80690000      -1.27720000
C       -0.41990000      -1.95690000      -0.57190000
C        0.47550000      -2.23320000       0.65120000
C        0.76800000      -0.75800000       1.08440000
C       -1.35470000      -0.82790000      -0.04720000
O       -2.16150000      -0.99260000       1.08810000
H        0.99080000       1.91650000       0.01100000
H       -0.59350000       1.94350000      -0.77840000
H       -0.48490000       1.86890000       0.98560000
H       -0.14970000      -0.43990000      -2.17580000
H        1.41600000      -0.96290000      -1.47750000
H       -0.80660000      -2.81680000      -1.11890000
H       -0.03600000      -2.81670000       1.42480000
H        1.38240000      -2.78190000       0.38380000
H        1.83330000      -0.51100000       1.05440000
H        0.41380000      -0.52630000       2.09570000
H       -2.02000000      -0.46070000      -0.83310000
H       -1.62420000      -1.34250000       1.80560000
