10
Properties=species:S:1:pos:R:3 gdb_93=T pbc="F F F"
O        0.00050000       0.00670000      -0.09740000
C       -0.01370000       1.19210000       0.03140000
C       -1.10670000       2.26610000       0.17250000
N       -0.03540000       3.25120000       0.48530000
C        1.05330000       2.29520000       0.14380000
H       -1.65050000       2.42800000      -0.76890000
H       -1.83610000       2.11370000       0.97570000
H       -0.05430000       4.07190000      -0.10730000
H        1.80750000       2.16280000       0.92740000
H        1.56740000       2.47130000      -0.81150000
