16
Properties=species:S:1:pos:R:3 gdb_83474=T pbc="F F F"
O       -0.09510000       1.33670000      -0.09740000
C       -0.21390000      -0.04420000      -0.11960000
C       -0.47590000      -0.83820000       1.12660000
N       -1.29860000       0.03400000       1.99700000
C       -2.44180000      -0.06200000       1.02000000
C       -1.53240000      -0.77780000       0.02270000
O       -1.99100000      -1.77210000      -0.84170000
C       -2.15000000      -1.42460000      -2.14800000
O       -2.56780000      -2.19060000      -2.95930000
H       -0.31120000       1.59870000       0.81160000
H        0.47020000      -0.51700000      -0.81990000
H        0.15280000      -1.63220000       1.51020000
H       -1.52680000      -0.41610000       2.87590000
H       -3.24010000      -0.72160000       1.37030000
H       -2.85900000       0.90510000       0.72190000
H       -1.84770000      -0.38090000      -2.34670000
