19
Properties=species:S:1:pos:R:3 gdb_43409=T pbc="F F F"
O        0.03980000       0.27890000       0.97560000
C       -0.04000000       1.29480000       0.30410000
C       -1.38810000       1.71350000      -0.16980000
C       -1.76700000       2.55780000      -1.13720000
C       -0.95370000       3.38610000      -2.09020000
C        0.47850000       2.92970000      -2.38670000
C        1.44320000       2.90520000      -1.21590000
C        1.19540000       3.61140000       0.07860000
C        1.19500000       2.08670000       0.04080000
H       -2.16330000       1.17810000       0.37260000
H       -2.84220000       2.66780000      -1.27590000
H       -1.50010000       3.42800000      -3.04080000
H       -0.94500000       4.42610000      -1.73110000
H        0.45020000       1.93400000      -2.84720000
H        0.88580000       3.60640000      -3.14770000
H        2.48260000       2.87070000      -1.53180000
H        2.02340000       4.09260000       0.58660000
H        0.23750000       4.09450000       0.23300000
H        2.05950000       1.59380000       0.47100000
