18
Properties=species:S:1:pos:R:3 gdb_11026=T pbc="F F F"
C       -0.04090000       1.53610000       0.04720000
C        0.04510000       0.02950000      -0.00060000
C       -0.82860000      -0.83670000       0.88870000
C        0.67460000      -0.82270000       1.08090000
C        1.49630000      -1.92840000       0.41190000
O        1.24220000      -3.24630000       0.88350000
C        1.19090000      -1.73010000      -1.06610000
C        0.42520000      -0.66030000      -1.27980000
H        0.90480000       1.99880000      -0.25690000
H       -0.82420000       1.90970000      -0.62300000
H       -0.27650000       1.88570000       1.05700000
H       -1.41540000      -0.34150000       1.65660000
H       -1.31270000      -1.70140000       0.44410000
H        1.05430000      -0.37420000       1.99140000
H        2.56510000      -1.78030000       0.61180000
H        0.29230000      -3.39490000       0.81500000
H        1.54770000      -2.42680000      -1.81590000
H        0.07050000      -0.31520000      -2.24610000
