21
Properties=species:S:1:pos:R:3 gdb_66380=T pbc="F F F"
C        0.04000000       1.54250000       0.17440000
C       -0.00090000       0.00510000       0.05970000
C        0.59850000      -0.48180000      -1.27230000
C        0.79420000      -2.00570000      -1.28290000
C        1.51500000      -2.46550000      -0.01660000
O        0.84080000      -2.02370000       1.15570000
C        0.78370000      -0.61580000       1.23360000
C       -1.46460000      -0.39950000       0.19800000
O       -2.15450000      -0.85230000      -0.67750000
H        1.07710000       1.89310000       0.18790000
H       -0.46640000       2.01080000      -0.67510000
H       -0.44430000       1.89360000       1.09270000
H       -0.05050000      -0.17650000      -2.09830000
H        1.56600000       0.01650000      -1.41610000
H       -0.18070000      -2.49830000      -1.34000000
H        1.36880000      -2.31070000      -2.16480000
H        1.55250000      -3.55630000       0.04970000
H        2.55340000      -2.08930000      -0.00770000
H        1.80030000      -0.18540000       1.24970000
H        0.30560000      -0.37750000       2.19090000
H       -1.88600000      -0.20400000       1.21340000
