14
Properties=species:S:1:pos:R:3 gdb_14807=T pbc="F F F"
C       -0.29470000      -1.23580000      -0.24530000
C       -0.18790000      -0.04760000      -0.09900000
C       -0.07110000       1.37840000       0.09180000
C        0.11710000       1.92680000       1.53100000
O        1.26630000       2.70020000       1.13840000
C        1.30460000       2.09920000      -0.17800000
C        2.46890000       1.26210000      -0.40150000
C        3.43730000       0.57820000      -0.59680000
H       -0.38190000      -2.28580000      -0.37770000
H       -0.87250000       1.90080000      -0.43700000
H       -0.69210000       2.55600000       1.91490000
H        0.37010000       1.15630000       2.26770000
H        1.24310000       2.86910000      -0.95600000
H        4.29270000      -0.02840000      -0.76570000
