15
Properties=species:S:1:pos:R:3 gdb_24462=T pbc="F F F"
C        0.01670000       1.36870000       0.02120000
O        1.28320000       1.93600000      -0.02820000
C        2.07380000       1.67350000       1.14390000
C        1.90050000       0.23380000       1.51760000
C        0.94280000      -0.49060000       0.88490000
O        0.92440000      -1.77650000       1.26660000
C        1.93130000      -1.89590000       2.20260000
C        2.55020000      -0.70340000       2.39400000
O        0.04790000      -0.07380000      -0.01910000
H       -0.52080000       1.65910000       0.93750000
H       -0.52270000       1.67910000      -0.87300000
H        3.10160000       1.91490000       0.85570000
H        1.78410000       2.36180000       1.95360000
H        2.06150000      -2.88250000       2.61140000
H        3.37210000      -0.51620000       3.06790000
