12
Properties=species:S:1:pos:R:3 gdb_129786=T pbc="F F F"
N        0.05180000       1.38460000       0.18240000
C       -0.08510000       0.03390000       0.06670000
C       -1.14430000      -0.83590000       0.04200000
N       -2.52870000      -1.01120000       0.04890000
C       -2.65320000      -2.28990000      -0.00560000
O       -1.48090000      -3.04690000      -0.05110000
C       -0.51960000      -2.09020000      -0.02010000
N        0.78490000      -2.10770000      -0.03860000
O        1.05440000      -0.68870000       0.01900000
H        0.93840000       1.75850000      -0.12220000
H       -0.75010000       1.92840000      -0.09580000
H       -3.56410000      -2.86800000      -0.02120000
