14
Properties=species:S:1:pos:R:3 gdb_132620=T pbc="F F F"
N       -0.04630000       1.43890000      -0.13390000
C       -0.04970000       0.04470000      -0.04930000
C       -1.20490000      -0.72770000       0.02360000
C       -1.12760000      -2.12140000       0.04100000
C        0.13430000      -2.68210000      -0.01660000
F        0.27080000      -4.00830000      -0.00230000
N        1.25600000      -1.98770000      -0.08220000
C        1.16280000      -0.67000000      -0.09760000
O        2.30840000       0.05360000      -0.15780000
H        0.83590000       1.85180000       0.13440000
H       -0.82350000       1.88680000       0.33040000
H       -2.17310000      -0.23820000       0.06400000
H       -2.00880000      -2.74630000       0.09790000
H        3.03440000      -0.58420000      -0.17060000
