15
Properties=species:S:1:pos:R:3 gdb_131524=T pbc="F F F"
O       -0.46590000       1.38780000      -0.43020000
C        0.05210000       0.12940000      -0.01400000
C       -1.15560000      -0.82390000       0.21740000
C       -1.44840000      -1.55860000      -1.13360000
C       -0.10410000      -1.50080000      -1.79220000
N        0.52380000      -2.05440000      -2.78380000
O        1.78150000      -1.46820000      -2.76380000
N        1.90660000      -0.55180000      -1.73710000
C        0.75160000      -0.57430000      -1.14690000
H        0.27180000       1.93550000      -0.72020000
H        0.67000000       0.23510000       0.88560000
H       -0.87910000      -1.56140000       0.97660000
H       -2.01200000      -0.25850000       0.58880000
H       -1.82340000      -2.57360000      -0.98790000
H       -2.18770000      -1.01420000      -1.72990000
