21
Properties=species:S:1:pos:R:3 gdb_92369=T pbc="F F F"
C       -0.06730000       1.56370000      -0.05940000
C        0.04450000       0.04750000       0.01820000
O        0.81950000      -0.44080000      -1.10510000
C        1.83860000      -1.24850000      -0.54560000
C        2.25040000      -0.48930000       0.71560000
C        0.79770000      -0.54660000       1.24660000
C        0.47670000       0.05710000       2.60100000
C        0.58300000      -2.07500000       1.15130000
O        1.28670000      -2.45700000      -0.04590000
H        0.90080000       2.05330000       0.08290000
H       -0.44390000       1.84650000      -1.04650000
H       -0.76510000       1.94420000       0.69340000
H       -0.96300000      -0.38740000      -0.04550000
H        2.56960000      -1.48430000      -1.31700000
H        2.96190000      -1.03810000       1.33670000
H        2.61970000       0.51760000       0.51540000
H        0.71130000       1.12490000       2.63350000
H       -0.58600000      -0.05770000       2.84510000
H        1.05210000      -0.43590000       3.39160000
H        1.01120000      -2.60140000       2.01520000
H       -0.47530000      -2.34910000       1.06300000
