25
Properties=species:S:1:pos:R:3 gdb_102409=T pbc="F F F"
C       -0.01840000       1.49940000       0.23550000
C       -0.09110000      -0.01000000      -0.01730000
C        0.66850000      -0.50710000      -1.26750000
C        0.56940000      -2.04720000      -1.34380000
C        1.34310000      -2.69660000      -2.49580000
C        0.10440000       0.14050000      -2.54300000
O       -1.26400000      -0.22260000      -2.66630000
O        2.03030000      -0.05270000      -1.28750000
C        2.87280000      -0.46450000      -0.23460000
H        1.01530000       1.85670000       0.23110000
H       -0.56790000       2.06280000      -0.52450000
H       -0.46040000       1.74680000       1.20560000
H        0.28780000      -0.54780000       0.86000000
H       -1.13590000      -0.31470000      -0.13140000
H        0.90950000      -2.46800000      -0.39000000
H       -0.49240000      -2.29910000      -1.42460000
H        0.89970000      -2.45530000      -3.46650000
H        2.38520000      -2.36530000      -2.51520000
H        1.33370000      -3.78640000      -2.39690000
H        0.23130000       1.22860000      -2.47200000
H        0.69470000      -0.20140000      -3.40310000
H       -1.61100000       0.18450000      -3.46450000
H        2.52800000      -0.11370000       0.74760000
H        2.99360000      -1.55530000      -0.18880000
H        3.85170000      -0.01950000      -0.43290000
