21
Properties=species:S:1:pos:R:3 gdb_113871=T pbc="F F F"
C       -0.08960000       1.43870000      -0.42550000
C       -0.04490000       0.02050000      -0.09790000
C       -0.00180000      -1.15220000       0.17160000
C        0.01950000      -2.57550000       0.50300000
C       -1.33620000      -3.24160000       0.29110000
C       -1.72160000      -3.81840000      -1.04570000
C       -1.50860000      -4.73610000       0.13450000
C       -0.35870000      -5.70820000       0.15970000
O       -0.76410000      -6.87620000      -0.54450000
H        0.62310000       1.68850000      -1.21950000
H       -1.08580000       1.73600000      -0.77200000
H        0.15520000       2.05850000       0.44440000
H        0.78510000      -3.07660000      -0.10150000
H        0.33280000      -2.70000000       1.54900000
H       -2.13230000      -2.74580000       0.83910000
H       -2.72850000      -3.66550000      -1.41710000
H       -0.96060000      -3.82850000      -1.82040000
H       -2.40730000      -5.14850000       0.58550000
H        0.53510000      -5.26280000      -0.30380000
H       -0.09690000      -5.95150000       1.20260000
H       -0.06320000      -7.53010000      -0.46340000
