19
Properties=species:S:1:pos:R:3 gdb_91514=T pbc="F F F"
C        0.29440000       1.76660000       0.22620000
C        0.07790000       0.26400000       0.11160000
C        0.92190000      -0.54190000      -0.94830000
C        1.47150000      -1.40990000       0.18720000
N        2.15960000      -0.51170000       1.11510000
C        0.68480000      -0.63620000       1.20720000
C        0.11910000      -1.20620000       2.45840000
N       -1.17550000      -0.87250000       2.72750000
O        0.77380000      -1.94750000       3.17520000
H        1.35140000       1.98150000       0.40210000
H       -0.01670000       2.27870000      -0.69050000
H       -0.28170000       2.19240000       1.05620000
H       -0.98410000       0.03210000      -0.02630000
H        0.29760000      -1.08800000      -1.65810000
H        1.67920000       0.03200000      -1.48870000
H        1.67590000      -2.47340000       0.18360000
H        2.51070000      -1.08710000       1.88400000
H       -1.65800000      -0.16140000       2.20700000
H       -1.56860000      -1.18280000       3.60090000
