21
Properties=species:S:1:pos:R:3 gdb_96067=T pbc="F F F"
C       -0.05390000       1.51900000       0.05960000
C       -0.00090000       0.00800000       0.00980000
C       -0.88960000      -0.80450000       0.91280000
C        0.60900000      -0.76460000       1.16180000
C        1.45120000      -2.01230000       0.91400000
O        0.97000000      -3.13760000       1.64100000
C        1.59860000      -2.30470000      -0.58920000
O        0.43890000      -1.97740000      -1.33880000
C        0.23670000      -0.57710000      -1.37400000
H        0.88310000       1.96330000      -0.29670000
H       -0.86560000       1.90800000      -0.56690000
H       -0.22450000       1.87490000       1.08020000
H       -1.53020000      -0.28700000       1.61860000
H       -1.31910000      -1.70880000       0.49200000
H        0.91070000      -0.18200000       2.02700000
H        2.45820000      -1.84390000       1.31290000
H        0.01570000      -3.17340000       1.51560000
H        2.46310000      -1.74820000      -0.98960000
H        1.77660000      -3.37400000      -0.72800000
H       -0.63240000      -0.40560000      -2.01900000
H        1.10750000      -0.08340000      -1.84160000
