22
Properties=species:S:1:pos:R:3 gdb_83952=T pbc="F F F"
C       -0.05380000       1.62840000      -0.00730000
C        0.04940000       0.11630000      -0.03600000
C        0.65250000      -0.61090000      -1.25840000
O        1.76290000       0.13040000      -1.75100000
C        2.83840000       0.25930000      -0.81410000
C        2.37780000       0.13620000       0.66960000
N        1.10450000      -0.59260000       0.81180000
C        1.10650000      -1.68770000      -0.24250000
C        0.14640000      -2.82730000       0.06220000
H        0.80630000       2.11540000      -0.47150000
H       -0.94590000       1.94280000      -0.55910000
H       -0.15530000       1.99150000       1.02100000
H       -0.91770000      -0.31090000       0.24450000
H        0.03870000      -0.86960000      -2.12690000
H        3.59500000      -0.50530000      -1.03690000
H        3.30230000       1.23300000      -1.00270000
H        3.14750000      -0.39480000       1.24140000
H        2.26120000       1.12080000       1.13050000
H        2.10220000      -2.10320000      -0.42500000
H       -0.88110000      -2.48610000       0.21280000
H        0.14300000      -3.54970000      -0.76110000
H        0.46090000      -3.34670000       0.97240000
