17
Properties=species:S:1:pos:R:3 gdb_93465=T pbc="F F F"
N       -0.00570000       1.47430000       0.17070000
C       -0.03760000       0.03390000      -0.02590000
C       -1.46200000      -0.51830000      -0.02710000
C       -1.40820000      -2.03520000      -0.20790000
C       -0.67180000      -2.42530000      -1.46000000
N       -0.98320000      -3.42780000      -2.15560000
O        0.41200000      -1.63480000      -1.83640000
C        0.73330000      -0.41920000      -1.27480000
O        1.61410000       0.21740000      -1.77600000
H        0.95070000       1.79710000       0.04690000
H       -0.53590000       1.92530000      -0.57170000
H        0.49780000      -0.42850000       0.81820000
H       -1.95420000      -0.25150000       0.91090000
H       -2.03990000      -0.05780000      -0.83920000
H       -0.88640000      -2.48370000       0.64850000
H       -2.39760000      -2.49170000      -0.25330000
H       -0.34610000      -3.52860000      -2.94820000
