17
Properties=species:S:1:pos:R:3 gdb_15819=T pbc="F F F"
C       -0.61570000       0.36360000       0.44010000
O        0.37620000       0.15510000       1.43290000
C        1.57600000      -0.41340000       0.93030000
C        1.36830000      -1.91190000       0.69750000
O        0.95880000      -2.36210000      -0.35190000
N        1.68730000      -2.70680000       1.79000000
C        1.05680000      -2.61470000       3.09690000
C        0.87880000      -3.82160000       2.21940000
H       -0.91820000      -0.57090000      -0.04760000
H       -1.47630000       0.80650000       0.94680000
H       -0.25760000       1.05790000      -0.33450000
H        1.87340000       0.05340000      -0.01810000
H        2.34570000      -0.23720000       1.68610000
H        1.72660000      -2.66290000       3.95120000
H        0.22240000      -1.92740000       3.19710000
H       -0.07470000      -3.95770000       1.71660000
H        1.41530000      -4.73650000       2.45310000
