14
Properties=species:S:1:pos:R:3 gdb_9939=T pbc="F F F"
N       -0.23120000       1.38800000      -0.02330000
C       -0.03490000      -0.04120000      -0.02470000
C        1.04020000      -0.58800000      -0.80110000
N        1.90390000      -1.02750000      -1.43550000
C       -0.44350000      -0.77370000       1.27780000
O       -0.82480000      -0.00270000       2.35730000
C       -1.36120000      -0.82950000       0.09520000
O       -2.49240000      -0.03320000       0.18830000
H        0.21080000       1.81680000       0.78370000
H        0.12940000       1.81310000      -0.86900000
H        0.15460000      -1.64060000       1.54020000
H       -1.75400000       0.23020000       2.20130000
H       -1.49160000      -1.74470000      -0.47230000
H       -2.17400000       0.87400000       0.00310000
