17
Properties=species:S:1:pos:R:3 gdb_36152=T pbc="F F F"
N       -0.07720000      -1.08200000      -0.51390000
C       -0.05680000       0.03390000      -0.21530000
C       -0.00220000       1.44370000       0.18010000
C        1.41070000       1.99320000       0.15280000
C        2.48610000       1.37240000       1.03610000
O        3.55980000       2.30640000       1.02610000
C        3.00310000       3.61430000       0.91590000
C        1.75310000       3.43760000       0.07230000
N        1.87790000       2.57230000      -1.10780000
H       -0.62700000       2.02580000      -0.50340000
H       -0.43120000       1.53690000       1.18510000
H        2.09060000       1.21760000       2.05380000
H        2.87090000       0.41720000       0.66580000
H        2.73610000       4.02820000       1.90170000
H        3.76440000       4.25780000       0.46350000
H        1.01660000       4.23320000       0.01830000
H        2.85520000       2.33210000      -1.26940000
