21
Properties=species:S:1:pos:R:3 gdb_59647=T pbc="F F F"
C       -0.54170000       1.34020000      -0.09460000
C       -0.11960000      -0.13080000      -0.13340000
O       -1.25230000      -0.98420000      -0.13910000
C        0.83690000      -0.42600000      -1.29640000
C        1.13120000      -1.93560000      -1.51130000
C        0.42450000      -2.26200000      -2.83220000
O       -0.92140000      -2.62720000      -2.51950000
C        0.48480000      -0.90800000      -3.53980000
O        0.23720000       0.03880000      -2.52000000
H        0.32520000       1.99940000       0.02730000
H       -1.05470000       1.61170000      -1.02030000
H       -1.22240000       1.50200000       0.74500000
H        0.43510000      -0.36120000       0.78880000
H       -1.42020000      -1.27520000      -1.04650000
H        1.77050000       0.13040000      -1.12860000
H        2.20420000      -2.11750000      -1.60760000
H        0.73890000      -2.55180000      -0.70150000
H        0.91810000      -3.06330000      -3.39630000
H       -1.42280000      -2.67350000      -3.34040000
H        1.47600000      -0.76320000      -4.00270000
H       -0.27780000      -0.78490000      -4.31690000
