16
Properties=species:S:1:pos:R:3 gdb_44771=T pbc="F F F"
N       -0.16230000       1.15840000       0.17790000
C       -0.08810000      -0.08850000       0.04760000
O        1.05640000      -0.85950000       0.00340000
C        0.49800000      -2.16800000      -0.14840000
C       -0.65690000      -2.17820000       0.96660000
C       -1.22910000      -1.09260000      -0.04830000
C       -2.21390000      -0.61920000      -1.14930000
O       -1.22490000      -1.09550000      -2.15560000
C       -0.72620000      -1.99990000      -1.12440000
H        0.76490000       1.58060000       0.24380000
H        1.28810000      -2.91270000      -0.22150000
H       -1.23420000      -3.09990000       1.01570000
H       -0.34290000      -1.84580000       1.95750000
H       -3.14550000      -1.18650000      -1.23320000
H       -2.37420000       0.45680000      -1.22050000
H       -1.25370000      -2.95650000      -1.20790000
