18
Properties=species:S:1:pos:R:3 gdb_47806=T pbc="F F F"
O        0.00130000       0.06150000       0.60660000
C       -0.04680000       1.20940000       0.21810000
C       -1.36080000       1.93500000       0.00260000
C       -1.66240000       2.20720000      -1.48270000
O       -0.90300000       3.26110000      -2.03730000
C        0.40050000       2.94060000      -2.45210000
C        1.43000000       2.73570000      -1.34940000
N        1.23910000       3.41020000      -0.07740000
C        1.22930000       1.93110000      -0.09720000
H       -2.14930000       1.30380000       0.42160000
H       -1.34360000       2.89790000       0.52210000
H       -1.53820000       1.28560000      -2.07420000
H       -2.70690000       2.52070000      -1.57190000
H        0.40100000       2.04720000      -3.10030000
H        0.72810000       3.78880000      -3.06440000
H        2.44170000       2.67550000      -1.75320000
H        2.11780000       3.74750000       0.30490000
H        2.10050000       1.39520000       0.27150000
