19
Properties=species:S:1:pos:R:3 gdb_69733=T pbc="F F F"
O       -0.04620000       1.38220000       0.09750000
C        0.02470000      -0.00800000       0.03370000
C       -0.59510000      -0.78900000       1.15030000
C        0.90710000      -0.87630000       0.90540000
C        1.40860000      -1.88270000      -0.12080000
C        0.24910000      -2.24280000      -1.10940000
C        1.27230000      -2.36390000      -2.26150000
C        1.70990000      -1.11650000      -1.46730000
C        0.19550000      -0.69570000      -1.31890000
H        0.76570000       1.73960000      -0.27980000
H       -0.88840000      -0.19660000       2.01080000
H       -1.23990000      -1.63790000       0.95000000
H        1.58190000      -0.45090000       1.63930000
H        2.08780000      -2.67690000       0.19570000
H       -0.59840000      -2.90050000      -0.90980000
H        1.94280000      -3.22780000      -2.23110000
H        0.89190000      -2.19880000      -3.27350000
H        2.55840000      -0.45730000      -1.66840000
H       -0.34150000      -0.28790000      -2.17740000
