18
Properties=species:S:1:pos:R:3 gdb_97534=T pbc="F F F"
C        0.00820000       1.49440000       0.02420000
C        0.02670000      -0.05700000      -0.01170000
C        0.77660000      -0.61470000       1.22690000
C       -1.36860000      -0.54680000       0.02110000
N       -2.46090000      -0.92020000       0.06920000
C        0.66860000      -0.52400000      -1.24690000
C        1.23060000      -0.88320000      -2.24930000
C        1.87460000      -1.38130000      -3.46650000
O        2.30360000      -2.72990000      -3.36720000
H        1.03560000       1.86560000       0.00350000
H       -0.52810000       1.89610000      -0.83750000
H       -0.47990000       1.84200000       0.93830000
H        0.28830000      -0.27730000       2.14480000
H        0.78860000      -1.70610000       1.21400000
H        1.80740000      -0.25270000       1.21510000
H        1.19340000      -1.23410000      -4.31940000
H        2.77600000      -0.79570000      -3.67800000
H        1.53810000      -3.26120000      -3.12370000
