21
Properties=species:S:1:pos:R:3 gdb_80866=T pbc="F F F"
C       -0.05570000       1.52780000       0.03470000
C        0.02590000       0.00400000      -0.01310000
C        0.99640000      -0.54980000      -1.10810000
C        1.95430000      -1.30660000      -0.17680000
O        2.15210000      -0.36780000       0.92300000
C        0.73460000      -0.62710000       1.22090000
C        0.29560000      -0.26410000       2.61160000
C        1.00070000      -2.08130000       0.76960000
O       -0.09750000      -2.80350000       0.27830000
H        0.93090000       1.95780000       0.23520000
H       -0.40920000       1.92670000      -0.92180000
H       -0.74650000       1.87500000       0.81040000
H       -0.97300000      -0.42710000      -0.12590000
H        0.50040000      -1.21070000      -1.82290000
H        1.51210000       0.24580000      -1.65190000
H        2.88060000      -1.72080000      -0.57630000
H        0.35800000       0.81550000       2.77640000
H       -0.74350000      -0.57290000       2.76650000
H        0.92100000      -0.76130000       3.35820000
H        1.56300000      -2.62460000       1.53700000
H        0.17590000      -3.71110000       0.11580000
