16
Properties=species:S:1:pos:R:3 gdb_12596=T pbc="F F F"
C       -0.02260000       1.47010000       0.00100000
N       -0.00050000       0.02380000       0.02920000
C       -0.01800000      -0.76040000      -1.12200000
O       -0.05290000      -0.35010000      -2.25830000
C        0.01730000      -2.18790000      -0.57700000
N        0.05270000      -2.07670000       0.88000000
C        0.04060000      -0.82350000       1.14650000
C        0.06720000      -0.25280000       2.52540000
H        0.87450000       1.89590000       0.46220000
H       -0.05550000       1.76260000      -1.05080000
H       -0.90540000       1.86960000       0.51070000
H       -0.86310000      -2.74850000      -0.91080000
H        0.89590000      -2.72220000      -0.95560000
H        0.09780000      -1.07160000       3.24400000
H        0.94400000       0.38760000       2.67140000
H       -0.82000000       0.36090000       2.71640000
