19
Properties=species:S:1:pos:R:3 gdb_102184=T pbc="F F F"
C       -0.22820000       1.66870000       0.09290000
N       -0.11770000       0.21330000       0.05980000
C        0.69390000      -0.39320000      -0.98800000
C        0.08450000      -0.15860000      -2.39000000
C       -1.28540000      -0.64990000      -2.50840000
N       -2.36520000      -1.04530000      -2.61920000
C        2.15590000       0.03470000      -1.00760000
C        3.19080000      -0.75160000      -0.32610000
O        3.04100000      -0.81180000      -1.74670000
H        0.72390000       2.21590000       0.18830000
H       -0.73570000       2.02920000      -0.80730000
H       -0.85760000       1.94580000       0.94280000
H        0.18290000      -0.13430000       0.96220000
H        0.68010000      -1.47480000      -0.81050000
H        0.10030000       0.90690000      -2.64560000
H        0.71290000      -0.66850000      -3.12730000
H        2.34020000       1.09950000      -1.15690000
H        4.09850000      -0.26530000       0.02740000
H        2.90990000      -1.65760000       0.21010000
