15
Properties=species:S:1:pos:R:3 gdb_44823=T pbc="F F F"
O       -1.11790000       0.48340000      -0.87550000
C       -0.55210000       1.37710000      -0.31840000
C       -0.93700000       2.83530000       0.06300000
C        0.56390000       3.06720000       0.29450000
N        0.93170000       2.16890000       1.39750000
C        0.90900000       1.62920000      -0.00070000
C        2.09120000       0.94370000      -0.63920000
C        3.33430000       1.67750000      -0.41290000
N        4.29020000       2.29020000      -0.19740000
H       -1.35940000       3.35620000      -0.80040000
H       -1.57350000       2.96960000       0.93930000
H        1.14810000       3.94420000       0.05000000
H        1.91660000       2.33550000       1.61670000
H        2.19930000      -0.07110000      -0.23720000
H        1.92080000       0.83650000      -1.71650000
