15
Properties=species:S:1:pos:R:3 gdb_9467=T pbc="F F F"
C        0.01130000       1.74030000      -0.21570000
C        0.05260000       0.22840000       0.00290000
N        1.09940000      -0.52230000      -0.73040000
C        1.61520000      -1.17790000       0.50580000
C        0.72880000      -0.24470000       1.33030000
O        0.61930000       0.06600000       2.47500000
C       -1.33000000      -0.38780000      -0.12950000
O       -1.54920000      -1.38960000      -0.76300000
H        1.00530000       2.16670000      -0.06540000
H       -0.31230000       1.97660000      -1.23410000
H       -0.68010000       2.20990000       0.49090000
H        0.66810000      -1.19120000      -1.36390000
H        1.33220000      -2.23140000       0.63240000
H        2.69390000      -1.07820000       0.66450000
H       -2.13810000       0.15310000       0.40630000
