17
Properties=species:S:1:pos:R:3 gdb_73098=T pbc="F F F"
C       -0.11930000       1.51520000       0.10590000
C        0.00970000       0.00910000       0.01670000
C       -1.27680000      -0.77370000      -0.20410000
C       -1.14560000      -2.01890000       0.67120000
O       -1.88130000      -2.95580000       0.74020000
O       -0.01970000      -1.92480000       1.44800000
C        0.73930000      -0.75930000       1.15390000
C        1.84850000      -0.98670000       0.11970000
O        1.04750000      -0.39010000      -0.92500000
H        0.84530000       1.97410000       0.34170000
H       -0.46160000       1.92120000      -0.85110000
H       -0.84020000       1.80070000       0.87880000
H       -2.17480000      -0.22790000       0.10160000
H       -1.39830000      -1.06670000      -1.24890000
H        0.98600000      -0.25090000       2.08650000
H        2.77190000      -0.42340000       0.30130000
H        2.08650000      -2.03680000      -0.07700000
