13
Properties=species:S:1:pos:R:3 gdb_671=T pbc="F F F"
C       -0.04800000       1.53060000       0.01630000
C        1.40580000       1.96350000       0.04230000
C        2.24580000       0.92940000      -0.04430000
C        1.49150000      -0.35790000      -0.08650000
N        0.69340000      -0.58810000       1.15510000
C        0.04870000       0.00860000      -0.03420000
H       -0.59460000       1.87370000       0.90290000
H       -0.57480000       1.93000000      -0.86050000
H        1.69860000       3.00180000       0.15090000
H        3.32740000       0.98790000      -0.04260000
H        1.86430000      -1.21910000      -0.63070000
H        0.43400000      -1.57310000       1.19160000
H       -0.70850000      -0.56510000      -0.55760000
