23
Properties=species:S:1:pos:R:3 gdb_121119=T pbc="F F F"
C       -0.69270000       1.49690000       0.11850000
C       -0.34880000       0.02490000       0.27290000
O       -1.47380000      -0.73890000      -0.11760000
C       -1.28320000      -2.14330000      -0.07400000
C       -1.41700000      -2.72430000       1.34010000
O       -2.80690000      -2.83460000       1.58950000
C       -3.53350000      -2.92480000       0.35140000
C       -4.59760000      -1.83260000       0.32840000
C       -2.47680000      -2.80380000      -0.77050000
H        0.16190000       2.11960000       0.39940000
H       -0.96210000       1.72110000      -0.91740000
H       -1.53990000       1.76150000       0.75760000
H        0.51840000      -0.23960000      -0.35600000
H       -0.06680000      -0.19180000       1.31540000
H       -0.32020000      -2.40520000      -0.53710000
H       -0.92210000      -3.70940000       1.38610000
H       -0.97510000      -2.08850000       2.11380000
H       -4.01910000      -3.90980000       0.31440000
H       -4.12080000      -0.84920000       0.30960000
H       -5.23770000      -1.93420000      -0.55470000
H       -5.22780000      -1.90180000       1.21980000
H       -2.81900000      -2.20640000      -1.61740000
H       -2.18470000      -3.79140000      -1.13870000
