11
Properties=species:S:1:pos:R:3 gdb_21400=T pbc="F F F"
N       -0.03610000       1.25660000       0.43810000
C       -0.01170000       0.09190000      -0.04520000
N       -1.17360000      -0.56000000      -0.40520000
C       -1.23520000      -1.82030000      -0.93460000
N       -2.32520000      -2.38240000      -1.25150000
N        0.02970000      -2.47610000      -1.11140000
N        1.10280000      -1.97910000      -0.82290000
O        1.13700000      -0.61870000      -0.25390000
H        0.90260000       1.58810000       0.64760000
H       -2.03710000      -0.05580000      -0.26080000
H       -2.13850000      -3.31170000      -1.62420000
