17
Properties=species:S:1:pos:R:3 gdb_73588=T pbc="F F F"
O        0.07590000       1.46860000      -0.16280000
C        0.02530000       0.07110000      -0.02500000
C       -1.36400000      -0.45870000      -0.37960000
C       -1.65000000      -1.54490000       0.68390000
O       -0.81460000      -1.26100000       1.81980000
C        0.30780000      -0.55010000       1.38920000
C        1.51390000      -1.31010000       0.77470000
O        1.02660000      -2.08550000      -0.32880000
C        1.27000000      -0.69460000      -0.54710000
H        0.94090000       1.77720000       0.12920000
H       -2.06410000       0.37630000      -0.29230000
H       -1.42580000      -0.85920000      -1.39370000
H       -2.68610000      -1.53070000       1.03540000
H       -1.42180000      -2.54150000       0.29460000
H        0.61230000       0.17410000       2.15240000
H        2.43240000      -1.64760000       1.24200000
H        1.95220000      -0.41530000      -1.34320000
