18
Properties=species:S:1:pos:R:3 gdb_106167=T pbc="F F F"
O       -0.03630000       1.41440000      -0.18130000
C        0.05140000       0.02040000       0.05280000
C       -1.32500000      -0.56630000       0.14750000
C       -2.43490000      -0.37030000       1.21250000
C       -3.26210000       0.31730000       0.11640000
N       -2.32070000      -0.16920000      -0.96190000
C       -2.55870000      -1.63950000      -1.21260000
C       -1.84340000      -2.02570000       0.09390000
O       -2.68910000      -1.79660000       1.24400000
H       -0.62780000       1.50850000      -0.94080000
H        0.61560000      -0.49010000      -0.74580000
H        0.60370000      -0.11990000       0.98820000
H       -2.34110000       0.05900000       2.21200000
H       -4.30320000       0.00260000       0.00460000
H       -3.20640000       1.40860000       0.17490000
H       -3.60700000      -1.93380000      -1.31180000
H       -2.00470000      -1.94910000      -2.10510000
H       -1.26810000      -2.95080000       0.17580000
