18
Properties=species:S:1:pos:R:3 gdb_66788=T pbc="F F F"
C       -0.02120000       1.51350000       0.01490000
C        0.06400000       0.01060000       0.00690000
C        0.81790000      -0.74660000      -1.11950000
C       -0.40860000      -1.61960000      -1.38480000
C        0.75280000      -2.15080000      -0.58430000
N        0.45830000      -2.17420000       0.86260000
C       -0.89860000      -1.64210000       1.06730000
C        0.30140000      -0.78830000       1.32270000
C       -1.19210000      -0.90310000      -0.26280000
H        0.95650000       1.96270000       0.22750000
H       -0.36020000       1.89620000      -0.95360000
H       -0.72240000       1.86500000       0.77970000
H        1.57950000      -0.36770000      -1.79150000
H       -0.78110000      -2.05670000      -2.30310000
H        1.39070000      -2.93670000      -0.96590000
H       -1.58170000      -2.15190000       1.73780000
H        0.78300000      -0.46310000       2.23960000
H       -2.16820000      -0.46370000      -0.45410000
