21
Properties=species:S:1:pos:R:3 gdb_77584=T pbc="F F F"
C       -0.15550000       1.59670000      -0.03900000
C        0.06870000       0.09030000       0.00350000
C        0.70470000      -0.63260000      -1.21150000
C       -0.08800000      -1.25380000      -2.32560000
C        2.14920000      -0.23840000      -1.35070000
C        1.77380000      -1.25470000      -0.29860000
C        1.18420000      -0.51900000       0.88190000
C        1.81140000      -0.05010000       2.11940000
O        0.88850000      -1.15470000       2.11180000
H        0.75870000       2.13720000      -0.30340000
H       -0.92280000       1.85790000      -0.77580000
H       -0.49450000       1.96930000       0.93380000
H       -0.86420000      -0.41860000       0.27320000
H       -0.53730000      -0.48840000      -2.97020000
H        0.54540000      -1.88380000      -2.95890000
H       -0.90040000      -1.87820000      -1.93660000
H        2.65430000      -0.64340000      -2.22270000
H        2.50500000       0.74650000      -1.05780000
H        2.16980000      -2.26290000      -0.27810000
H        2.84750000      -0.30970000       2.33440000
H        1.44760000       0.85130000       2.61140000
