17
Properties=species:S:1:pos:R:3 gdb_92837=T pbc="F F F"
O        0.00160000       1.42700000       0.04560000
C        0.00690000       0.01390000      -0.03630000
C        0.46320000      -0.63800000       1.31640000
N       -0.76530000      -0.65560000       2.18380000
C       -1.70480000      -0.70660000       1.32880000
N       -3.05390000      -0.39470000       1.19230000
C       -2.77720000       0.15060000      -0.19290000
C       -1.40600000      -0.61030000      -0.14460000
O       -1.31650000      -1.78600000      -0.91250000
H       -0.25320000       1.66950000       0.94330000
H        0.62990000      -0.25630000      -0.89180000
H        0.86400000      -1.64700000       1.16670000
H        1.23850000      -0.03310000       1.79560000
H       -3.53640000       0.14860000       1.89930000
H       -3.48340000      -0.19810000      -0.94940000
H       -2.67530000       1.23880000      -0.22080000
H       -2.02760000      -2.38070000      -0.64850000
