21
Properties=species:S:1:pos:R:3 gdb_76655=T pbc="F F F"
C        0.08010000       1.36910000       0.38770000
C        0.16950000      -0.09420000       0.01870000
C        0.68820000      -0.58710000      -1.31600000
C        1.16370000       0.34400000      -2.41150000
C        1.49400000      -0.82520000      -0.05360000
N        2.71850000      -0.10600000       0.11900000
C        3.16570000       0.26020000       1.36880000
N        4.44940000       0.80160000       1.37730000
O        2.48490000       0.17930000       2.37350000
H        0.92060000       1.94610000      -0.00350000
H       -0.84310000       1.81370000      -0.00010000
H        0.08990000       1.48050000       1.47520000
H       -0.63090000      -0.69490000       0.44280000
H        0.19780000      -1.47870000      -1.69880000
H        1.69400000       1.21380000      -2.01760000
H        1.83890000      -0.17440000      -3.10310000
H        0.31700000       0.71330000      -3.00010000
H        1.50660000      -1.83950000       0.34090000
H        3.36510000      -0.08640000      -0.65320000
H        5.11500000       0.47070000       0.69510000
H        4.82440000       0.87210000       2.31100000
