17
Properties=species:S:1:pos:R:3 gdb_37763=T pbc="F F F"
O        0.01150000       1.44500000       0.00450000
C        1.29230000       1.98260000      -0.00390000
C        2.35150000       1.26540000       0.78990000
C        1.90580000       0.09470000       1.54890000
C        0.75950000      -0.51490000       1.21620000
C        0.01840000      -0.00490000       0.00560000
C        0.74430000      -0.51670000      -1.21330000
C        1.88650000       0.09230000      -1.56120000
C        2.34150000       1.26420000      -0.80960000
H        1.25220000       3.06560000      -0.00440000
H        3.15680000       1.85870000       1.20690000
H        2.51190000      -0.24820000       2.38180000
H        0.37940000      -1.37790000       1.75130000
H       -1.03470000      -0.29200000       0.01240000
H        0.35760000      -1.38060000      -1.74240000
H        2.48210000      -0.25190000      -2.40100000
H        3.14150000       1.85680000      -1.23750000
