20
Properties=species:S:1:pos:R:3 gdb_9964=T pbc="F F F"
C       -0.23230000       1.56130000      -0.07690000
C        0.09010000       0.06840000       0.06890000
C        0.72700000      -0.51700000      -1.17610000
O        1.94690000       0.08080000      -1.55090000
C        0.69830000      -1.99720000      -1.47470000
C        0.04140000      -3.01590000      -0.56940000
C       -0.12830000      -1.02490000      -2.31060000
O       -1.51690000      -0.96120000      -2.14120000
H        0.67180000       2.15080000      -0.26630000
H       -0.93430000       1.72960000      -0.90000000
H       -0.68570000       1.95400000       0.83780000
H        0.77430000      -0.08380000       0.91280000
H       -0.83080000      -0.47440000       0.29260000
H        1.75320000       0.96760000      -1.87430000
H        1.60390000      -2.33880000      -1.96850000
H       -0.95390000      -2.69500000      -0.25280000
H       -0.07030000      -3.97480000      -1.08800000
H        0.63990000      -3.19740000       0.32950000
H        0.22570000      -0.81040000      -3.31920000
H       -1.90360000      -1.75180000      -2.53270000
