17
Properties=species:S:1:pos:R:3 gdb_47451=T pbc="F F F"
O        0.04290000      -0.00890000       0.05740000
C        0.03020000       1.18150000      -0.02760000
O       -1.10980000       1.92270000      -0.08210000
C       -0.76730000       3.30480000      -0.11200000
O        0.60250000       3.40020000      -0.41470000
C        1.21040000       2.15390000      -0.08620000
C        1.99400000       2.18240000       1.20480000
C        3.10180000       1.17970000       1.40550000
C        3.43290000       2.63290000       1.19040000
H       -1.34850000       3.79930000      -0.89600000
H       -1.00300000       3.74320000       0.86930000
H        1.86960000       1.86620000      -0.91320000
H        1.40560000       2.44410000       2.08000000
H        3.22700000       0.75710000       2.39520000
H        3.30110000       0.48230000       0.59940000
H        3.86040000       2.92520000       0.23690000
H        3.78950000       3.21350000       2.03330000
