19
Properties=species:S:1:pos:R:3 gdb_93334=T pbc="F F F"
C       -0.20120000       1.53760000      -0.00160000
C        0.06630000       0.03270000       0.02780000
C        0.92280000      -0.49660000      -1.14650000
C        1.34240000      -1.90520000      -0.70950000
C        1.42140000      -1.84020000       0.81850000
O        1.89130000      -2.67490000       1.54230000
C        0.78720000      -0.50420000       1.29520000
C        1.89000000       0.41030000       1.80170000
O        1.98450000       0.78830000       2.93940000
H        0.72770000       2.11740000       0.01570000
H       -0.74350000       1.81260000      -0.91210000
H       -0.80480000       1.85190000       0.85540000
H       -0.90100000      -0.48550000      -0.01320000
H        0.37260000      -0.48360000      -2.09100000
H        1.80570000       0.13990000      -1.28230000
H        0.57560000      -2.64890000      -0.96290000
H        2.28470000      -2.26720000      -1.12790000
H        0.12160000      -0.69370000       2.14020000
H        2.63750000       0.71740000       1.03590000
