15
Properties=species:S:1:pos:R:3 gdb_26722=T pbc="F F F"
N        0.17370000       1.42970000      -0.01180000
C        0.01890000       0.03000000      -0.02090000
C       -1.07170000      -0.80790000      -0.01870000
O       -2.35470000      -0.35000000      -0.00530000
C       -0.59880000      -2.16380000      -0.03240000
C       -1.37820000      -3.38260000      -0.03530000
O       -0.93270000      -4.51240000      -0.04710000
C        0.79450000      -2.09210000      -0.04270000
N        1.14250000      -0.79120000      -0.03580000
H       -0.24890000       1.84920000       0.81050000
H       -0.26140000       1.86130000      -0.82120000
H       -2.95800000      -1.09920000      -0.00590000
H       -2.48700000      -3.22600000      -0.02550000
H        1.51590000      -2.89180000      -0.05420000
H        2.07820000      -0.41950000      -0.04030000
