16
Properties=species:S:1:pos:R:3 gdb_18440=T pbc="F F F"
C       -0.38060000       1.44830000       0.01030000
N        0.07590000       0.06780000       0.00570000
C        1.10420000      -0.41010000      -0.95880000
C        1.83700000      -1.10350000       0.19600000
C        2.28690000      -0.07470000       1.22100000
C        2.81470000       1.20810000       0.85050000
N        3.25270000       2.23520000       0.54410000
C        0.80940000      -0.48840000       1.11720000
H        0.42380000       2.19270000       0.08980000
H       -0.94090000       1.64080000      -0.91030000
H       -1.06730000       1.58880000       0.85160000
H        0.68490000      -1.09590000      -1.70120000
H        1.67420000       0.37610000      -1.46890000
H        2.24910000      -2.10310000       0.18530000
H        2.78150000      -0.51380000       2.08330000
H        0.30530000      -0.88140000       1.99450000
