22
Properties=species:S:1:pos:R:3 gdb_98587=T pbc="F F F"
C       -0.29880000       1.32660000       0.79200000
C        0.16660000      -0.09060000       0.47240000
C       -0.11800000      -0.51650000      -0.96420000
O       -0.60000000       0.25870000      -1.76990000
C        0.25070000      -1.93070000      -1.27910000
C       -0.61570000      -2.79120000      -2.18630000
C       -1.89380000      -2.30140000      -2.82970000
N        0.70670000      -2.39180000      -2.60240000
C        0.90580000      -1.45580000      -3.70650000
H        0.17950000       2.05120000       0.12860000
H       -1.37860000       1.42460000       0.65230000
H       -0.05840000       1.58870000       1.82610000
H        1.24720000      -0.20140000       0.64200000
H       -0.29930000      -0.82720000       1.14220000
H        0.75810000      -2.43500000      -0.45840000
H       -0.65670000      -3.83990000      -1.88780000
H       -1.91180000      -1.21830000      -2.94600000
H       -2.01950000      -2.76750000      -3.81340000
H       -2.75080000      -2.59720000      -2.21580000
H        0.21440000      -0.60940000      -3.73050000
H        1.92600000      -1.06500000      -3.64120000
H        0.82420000      -2.02150000      -4.64000000
