13
Properties=species:S:1:pos:R:3 gdb_123517=T pbc="F F F"
C       -0.02730000       1.29590000       0.00970000
N        1.19330000       1.82520000       0.00090000
C        2.06950000       0.79290000      -0.01340000
C        1.38690000      -0.41770000      -0.01370000
C        1.63310000      -1.80190000      -0.02390000
N        0.66280000      -2.68420000      -0.01960000
C       -0.61210000      -2.18230000      -0.00440000
N       -1.00000000      -0.93630000       0.00640000
N        0.02860000      -0.05280000       0.00150000
H       -0.96370000       1.83000000       0.02180000
H        3.13750000       0.94970000      -0.02280000
H        2.65680000      -2.17060000      -0.03590000
H       -1.41530000      -2.91140000      -0.00080000
