19
Properties=species:S:1:pos:R:3 gdb_108123=T pbc="F F F"
C        0.02250000       1.41430000      -0.01550000
O        0.03730000      -0.00140000      -0.00940000
C        0.71480000      -0.54540000       1.05940000
C        2.24390000      -0.49800000       1.25770000
C        1.97730000      -1.66710000       2.24250000
C        1.21760000      -0.95330000       3.38260000
C        0.00400000      -0.63060000       2.49470000
O       -0.47830000      -1.96900000       2.17380000
C        0.69040000      -2.05370000       1.35820000
H        1.03680000       1.83120000      -0.08930000
H       -0.55280000       1.72380000      -0.89040000
H       -0.45720000       1.82000000       0.88690000
H        2.74730000      -0.81840000       0.34100000
H        2.72420000       0.39940000       1.65710000
H        2.74960000      -2.39080000       2.48940000
H        0.92590000      -1.59890000       4.21360000
H        1.75470000      -0.07960000       3.76190000
H       -0.77710000       0.05050000       2.82920000
H        0.72300000      -2.86850000       0.63740000
