18
Properties=species:S:1:pos:R:3 gdb_30034=T pbc="F F F"
C       -0.08930000       1.57850000      -0.00380000
C        0.01050000       0.04180000       0.00860000
C        0.85040000      -0.52340000      -1.13250000
C        1.85990000      -1.25520000      -0.64730000
N        1.80630000      -1.26920000       0.75520000
C        2.50640000      -1.79110000       1.81300000
C        1.86840000      -1.36620000       2.95920000
C        0.74810000      -0.56120000       2.57900000
C        0.73620000      -0.52110000       1.20570000
H        0.90550000       2.03040000       0.04140000
H       -0.58820000       1.92930000      -0.91300000
H       -0.66440000       1.93250000       0.85710000
H       -1.00940000      -0.36560000      -0.05360000
H        0.64840000      -0.34060000      -2.17780000
H        2.64170000      -1.79290000      -1.16400000
H        3.37760000      -2.40850000       1.66700000
H        2.16900000      -1.60640000       3.96800000
H        0.04700000      -0.08310000       3.24580000
