19
Properties=species:S:1:pos:R:3 gdb_81700=T pbc="F F F"
O       -0.21790000       1.59150000       0.27230000
C       -0.07770000       0.21220000       0.10180000
C        0.25490000      -0.72660000       1.29280000
C       -0.14840000      -0.21380000       2.66730000
C       -1.55100000       0.32260000       2.80790000
C       -2.55890000       0.32880000       1.92810000
C       -2.61290000      -0.19850000       0.51610000
C       -1.30920000      -0.71700000      -0.07240000
O       -0.68050000      -1.70590000       0.77890000
H       -0.84460000       1.74280000       0.99140000
H        0.63440000       0.07480000      -0.71500000
H        1.27260000      -1.13160000       1.32660000
H       -0.01630000      -1.02830000       3.39410000
H        0.56810000       0.56380000       2.96970000
H       -1.75700000       0.74580000       3.79000000
H       -3.50120000       0.75660000       2.26770000
H       -3.35670000      -1.00750000       0.47860000
H       -3.00390000       0.58600000      -0.14810000
H       -1.48320000      -1.11450000      -1.07870000
