18
Properties=species:S:1:pos:R:3 gdb_20175=T pbc="F F F"
C        0.06060000       1.61870000       0.11330000
C        1.56810000       1.56120000      -0.13250000
C        2.27880000       0.61500000       0.81390000
C        1.89340000       0.31680000       2.26280000
C        0.61710000      -0.47480000       2.40170000
C       -0.24630000      -0.61930000       1.39720000
C        0.01190000       0.04190000       0.07180000
C        1.50430000       0.05050000      -0.33970000
H       -0.28760000       2.09300000       1.03630000
H       -0.47380000       2.05810000      -0.73330000
H        2.13300000       2.29730000      -0.69310000
H        3.35270000       0.62470000       0.64520000
H        2.70960000      -0.24450000       2.73740000
H        1.81900000       1.25060000       2.83980000
H        0.42720000      -0.93430000       3.36840000
H       -1.16120000      -1.19000000       1.53010000
H       -0.65530000      -0.32920000      -0.70690000
H        1.94350000      -0.57280000      -1.10890000
