19
Properties=species:S:1:pos:R:3 gdb_90327=T pbc="F F F"
O        0.32460000       1.38500000       0.05180000
C        0.13880000      -0.00670000       0.08700000
C        0.15260000      -0.64150000       1.53790000
C       -1.35380000      -0.65550000       1.43050000
C       -2.48680000      -0.25090000       1.99450000
C       -3.49730000       0.08330000       0.90250000
C       -2.62120000       0.32100000      -0.36360000
O       -2.36570000       1.72820000      -0.42080000
C       -1.35500000      -0.52540000      -0.06850000
H       -0.46690000       1.78930000       0.43500000
H        0.86100000      -0.43700000      -0.61160000
H        0.60960000      -1.63690000       1.53520000
H        0.60910000      -0.03570000       2.32450000
H       -2.67850000      -0.08510000       3.04810000
H       -4.21940000      -0.72630000       0.73160000
H       -4.07520000       0.98710000       1.12240000
H       -3.13620000       0.00710000      -1.28100000
H       -1.77600000       1.88660000      -1.16690000
H       -1.37090000      -1.47620000      -0.61430000
