21
Properties=species:S:1:pos:R:3 gdb_111692=T pbc="F F F"
C        0.54220000       1.29890000      -0.12040000
O       -0.21810000       0.17780000       0.31170000
C        0.46020000      -0.58920000       1.26860000
C       -0.09010000      -1.92100000       1.65930000
C       -1.11900000      -2.56720000       0.72370000
C       -0.27240000      -3.27630000      -0.35700000
C        1.03600000      -2.45840000      -0.49040000
O        1.00510000      -1.52440000      -1.56240000
C        1.23850000      -1.83370000       0.90350000
H        1.45840000       0.98170000      -0.63390000
H       -0.08790000       1.86360000      -0.81150000
H        0.80770000       1.94460000       0.72820000
H        0.88230000       0.02100000       2.06850000
H       -0.12640000      -2.16140000       2.71620000
H       -1.75790000      -3.26640000       1.26840000
H       -1.77490000      -1.80820000       0.28590000
H       -0.01950000      -4.28310000      -0.00480000
H       -0.77210000      -3.37920000      -1.32450000
H        1.87890000      -3.11480000      -0.72430000
H        0.29250000      -0.90670000      -1.35740000
H        2.18870000      -1.99420000       1.40170000
