21
Properties=species:S:1:pos:R:3 gdb_120308=T pbc="F F F"
C        0.14790000       1.50230000       0.24030000
C        0.56430000       0.04420000       0.16400000
O        0.06260000      -0.62140000       1.31880000
C        0.38930000      -1.96740000       1.37010000
C        1.79870000      -2.45060000       1.58600000
O        2.55230000      -1.49680000       2.32910000
C        1.63370000      -1.62250000       3.44760000
C        0.74460000      -2.60890000       2.68480000
C        0.04050000      -3.78900000       3.28760000
H        0.55620000       1.96920000       1.14120000
H        0.51780000       2.04980000      -0.63190000
H       -0.94180000       1.59240000       0.27060000
H        0.15930000      -0.42690000      -0.74630000
H        1.65800000      -0.05160000       0.13230000
H       -0.19890000      -2.61290000       0.71120000
H        2.34040000      -3.15280000       0.96020000
H        2.14070000      -2.07800000       4.30610000
H        1.18790000      -0.66380000       3.72860000
H       -0.81610000      -3.47030000       3.89380000
H       -0.33930000      -4.46130000       2.51200000
H        0.71090000      -4.36770000       3.93280000
