14
Properties=species:S:1:pos:R:3 gdb_45499=T pbc="F F F"
O       -0.06370000      -0.02300000      -0.11390000
C       -0.03460000       1.16270000      -0.02450000
O       -1.15290000       1.95230000      -0.00130000
C       -0.78360000       3.27000000       0.44280000
O       -0.86950000       3.34190000       1.83170000
C        0.30410000       2.71180000       2.37560000
C        1.35420000       2.77080000       1.27250000
C        0.70670000       3.36720000       0.08770000
N        1.15160000       1.97610000       0.01830000
H       -1.47300000       3.98380000      -0.00200000
H        0.62330000       3.28330000       3.25130000
H        0.07530000       1.68640000       2.69020000
H        2.39600000       2.92000000       1.53050000
H        1.11990000       4.10010000      -0.59360000
