17
Properties=species:S:1:pos:R:3 gdb_84516=T pbc="F F F"
O       -0.05200000       1.43370000      -0.08550000
C        0.02550000       0.01390000       0.00570000
C        0.66510000      -0.47450000       1.31460000
C       -0.13760000      -1.27110000       2.03390000
C       -1.45600000      -1.43900000       1.36110000
C       -2.34090000      -0.21290000       1.15750000
C       -1.35580000      -0.59730000       0.10860000
O       -1.82920000      -1.64280000      -0.75290000
C       -1.88360000      -2.54980000       0.38790000
H        0.84590000       1.77880000      -0.12560000
H        0.54230000      -0.39970000      -0.87360000
H        1.65570000      -0.14640000       1.61940000
H        0.12190000      -1.70470000       2.99460000
H       -3.39680000      -0.34940000       0.94490000
H       -2.08780000       0.65080000       1.75990000
H       -1.14180000      -3.34930000       0.28710000
H       -2.88200000      -2.98190000       0.51900000
