22
Properties=species:S:1:pos:R:3 gdb_89405=T pbc="F F F"
C       -0.03290000       1.55620000       0.03780000
C        0.12280000       0.04040000       0.01420000
C        0.84000000      -0.53880000      -1.23450000
O        1.81910000       0.39180000      -1.69470000
C        1.45450000      -1.85070000      -0.70130000
C        1.64110000      -1.62460000       0.79810000
C        1.69090000      -2.83470000       1.69830000
C        2.27830000      -0.33850000       1.19220000
N        0.80680000      -0.48040000       1.21730000
H        0.93830000       2.05390000       0.00400000
H       -0.61400000       1.89830000      -0.82390000
H       -0.55240000       1.86090000       0.95020000
H       -0.87670000      -0.41390000       0.03590000
H        0.11620000      -0.73250000      -2.03830000
H        2.27000000      -0.00290000      -2.44750000
H        0.75700000      -2.68290000      -0.85790000
H        2.38430000      -2.10590000      -1.22180000
H        2.57600000      -3.44560000       1.48540000
H        1.72810000      -2.53360000       2.74840000
H        0.80610000      -3.46670000       1.55820000
H        2.72860000      -0.25240000       2.17790000
H        2.73150000       0.27320000       0.41980000
