14
Properties=species:S:1:pos:R:3 gdb_44112=T pbc="F F F"
O       -0.13510000       0.05610000       0.16160000
C       -0.05860000       1.24260000       0.02660000
N       -1.15940000       2.12660000      -0.26750000
C       -0.58190000       3.33220000       0.18310000
N       -0.72390000       3.85200000       1.33540000
C        0.66030000       4.15420000       1.76620000
C        1.52110000       3.45420000       0.70830000
C        1.19830000       2.11630000      -0.01610000
N        0.70250000       3.43160000      -0.49310000
H       -2.03620000       1.85260000       0.16010000
H        0.90340000       5.22590000       1.77350000
H        0.78000000       3.77750000       2.78610000
H        2.55240000       3.77440000       0.58210000
H        2.03220000       1.66720000      -0.54890000
