10
Properties=species:S:1:pos:R:3 gdb_3857=T pbc="F F F"
N        0.10550000       1.42680000      -0.11230000
C       -0.00120000       0.06220000      -0.04820000
C       -1.07960000      -0.78450000      -0.11310000
O       -2.38830000      -0.44190000      -0.19700000
N       -0.60430000      -2.04900000      -0.07660000
N        0.66060000      -2.06880000       0.00710000
O        1.09510000      -0.68270000       0.02510000
H        0.92710000       1.80980000       0.33330000
H       -0.74320000       1.91710000       0.13090000
H       -2.90420000      -1.25620000      -0.18810000
