17
Properties=species:S:1:pos:R:3 gdb_77317=T pbc="F F F"
C       -0.06990000       1.59190000       0.00430000
C        0.09860000       0.07730000       0.00340000
C        0.87160000      -0.52040000      -1.20010000
C        1.49810000      -1.82330000      -0.63010000
N        1.68890000      -1.46790000       0.76170000
C        0.89640000      -0.44450000       1.21120000
O        0.82890000      -0.03430000       2.34690000
C        0.06020000      -0.74070000      -2.39050000
N       -0.59140000      -0.91560000      -3.32890000
H        0.89610000       2.09540000      -0.10820000
H       -0.72550000       1.91740000      -0.80800000
H       -0.50210000       1.90830000       0.95650000
H       -0.88830000      -0.40080000       0.06230000
H        1.68410000       0.16740000      -1.46260000
H        0.81450000      -2.67320000      -0.75780000
H        2.44290000      -2.06790000      -1.12270000
H        2.19320000      -2.04700000       1.41450000
