18
Properties=species:S:1:pos:R:3 gdb_66141=T pbc="F F F"
O        0.10840000       1.53690000      -0.43560000
C       -0.03950000       0.21010000      -0.00780000
C        0.41600000      -0.00080000       1.47090000
C       -0.54490000      -1.06550000       2.03420000
N       -1.78780000      -1.04250000       1.23200000
C       -2.35800000       0.30340000       1.08590000
C       -1.49880000      -0.26180000       0.01700000
C        0.76260000      -0.70220000      -0.92120000
O        1.41150000      -0.27520000      -1.84510000
H        0.69840000       1.50280000      -1.20560000
H        1.46550000      -0.29750000       1.55170000
H        0.31940000       0.96680000       1.96810000
H       -0.11800000      -2.06960000       1.93670000
H       -0.77770000      -0.91160000       3.09240000
H       -3.43410000       0.32450000       0.94470000
H       -1.96470000       1.11710000       1.68920000
H       -1.94180000      -0.61030000      -0.91210000
H        0.72550000      -1.78550000      -0.68670000
