15
Properties=species:S:1:pos:R:3 gdb_124288=T pbc="F F F"
C        1.12260000       0.70180000       0.19170000
C       -0.28280000       0.37670000      -0.25840000
O       -1.26960000       0.91460000       0.18190000
C       -0.39560000      -0.68530000      -1.31720000
N       -1.55130000      -1.06830000      -1.80120000
O       -1.20040000      -2.04110000      -2.72940000
C        0.14040000      -2.14490000      -2.70880000
C        0.78130000      -3.12720000      -3.61950000
N        0.69390000      -1.33500000      -1.85850000
H        1.61230000      -0.19520000       0.58440000
H        1.72670000       1.03250000      -0.65950000
H        1.08370000       1.47890000       0.95510000
H        0.53770000      -2.90090000      -4.66180000
H        1.86180000      -3.09010000      -3.48400000
H        0.42280000      -4.13880000      -3.40750000
