19
Properties=species:S:1:pos:R:3 gdb_94977=T pbc="F F F"
C       -0.04960000       1.54910000       0.05550000
C        0.06330000       0.03510000       0.04470000
O        0.86030000      -0.36720000      -1.10170000
C        1.77990000      -1.46610000      -0.81660000
C        1.38390000      -1.92720000       0.57720000
C        1.98360000      -1.68640000       2.00010000
C        2.26710000      -0.21700000       1.66580000
C        0.85520000      -0.61490000       1.14890000
O        0.60220000      -1.28130000       2.44840000
H        0.93630000       2.00780000       0.17290000
H       -0.48480000       1.90410000      -0.88220000
H       -0.69150000       1.87480000       0.88030000
H       -0.93390000      -0.42550000      -0.01780000
H        1.62680000      -2.23780000      -1.57680000
H        2.80710000      -1.09590000      -0.90530000
H        0.63360000      -2.71980000       0.57960000
H        2.50910000      -2.37580000       2.66110000
H        2.26730000       0.45620000       2.52250000
H        3.04790000       0.01570000       0.94040000
