23
Properties=species:S:1:pos:R:3 gdb_114817=T pbc="F F F"
C        0.11990000       1.20580000      -0.35620000
O        0.02100000      -0.07880000       0.21430000
C       -1.28580000      -0.59260000       0.21200000
C       -1.89630000      -1.11250000      -1.12700000
C       -2.25950000      -2.45380000      -0.42640000
C       -1.24650000      -3.59020000      -0.68100000
C       -0.30620000      -2.98580000       0.40400000
C       -1.43130000      -1.99350000       0.84050000
C       -1.91280000      -2.09010000       2.27130000
H        1.16640000       1.51370000      -0.29010000
H       -0.18400000       1.21300000      -1.41390000
H       -0.50110000       1.93840000       0.18370000
H       -1.96900000       0.12360000       0.69880000
H       -2.73820000      -0.53400000      -1.51370000
H       -1.15480000      -1.22520000      -1.92420000
H       -3.32150000      -2.70110000      -0.38260000
H       -1.63670000      -4.56980000      -0.39060000
H       -0.85030000      -3.66860000      -1.69830000
H       -0.00010000      -3.68330000       1.18750000
H        0.58530000      -2.48610000       0.02140000
H       -1.14300000      -1.73000000       2.96500000
H       -2.81590000      -1.49060000       2.43450000
H       -2.14530000      -3.12550000       2.54530000
