22
Properties=species:S:1:pos:R:3 gdb_121044=T pbc="F F F"
C       -0.36850000       1.58820000      -0.31140000
C       -0.11050000       0.10320000      -0.04270000
C       -1.39430000      -0.72970000      -0.09030000
N       -1.15380000      -2.14390000       0.21600000
C       -2.37250000      -2.89000000       0.59320000
C       -2.99120000      -3.41530000      -0.71480000
C       -1.76470000      -3.60300000      -1.61210000
O       -1.70990000      -4.19570000      -2.65700000
C       -0.59010000      -2.89660000      -0.90720000
H        0.55990000       2.16520000      -0.26790000
H       -0.80980000       1.74430000      -1.30220000
H       -1.05810000       2.01240000       0.42700000
H        0.60980000      -0.27920000      -0.77640000
H        0.35170000      -0.03570000       0.94100000
H       -2.08630000      -0.34440000       0.66730000
H       -1.88960000      -0.57920000      -1.07000000
H       -2.08320000      -3.73320000       1.23350000
H       -3.04270000      -2.25290000       1.17320000
H       -3.56090000      -4.34310000      -0.62760000
H       -3.64490000      -2.66800000      -1.18070000
H       -0.03790000      -2.26530000      -1.60670000
H        0.10590000      -3.67190000      -0.55480000
