22
Properties=species:S:1:pos:R:3 gdb_106774=T pbc="F F F"
C        0.03140000       1.48310000      -0.34740000
C        0.03340000       0.03580000       0.16380000
C       -1.34570000      -0.55180000       0.23300000
N       -2.02470000      -0.98530000      -0.98950000
C       -1.88200000      -1.95630000       0.10100000
C       -1.21230000      -3.26910000      -0.17150000
C       -2.94870000      -1.68560000       1.17390000
C       -2.40290000      -0.22150000       1.30150000
O       -1.77890000       0.06600000       2.53490000
H        1.04890000       1.88180000      -0.40200000
H       -0.41030000       1.53940000      -1.34720000
H       -0.54580000       2.13420000       0.31750000
H        0.64630000      -0.58870000      -0.49560000
H        0.48060000      -0.00600000       1.16290000
H       -2.97180000      -0.61730000      -1.07610000
H       -0.39190000      -3.14150000      -0.88250000
H       -0.81380000      -3.70690000       0.75000000
H       -1.91990000      -3.98640000      -0.60500000
H       -3.99190000      -1.82490000       0.86610000
H       -2.76930000      -2.22830000       2.10640000
H       -3.10730000       0.57820000       1.02070000
H       -2.46150000       0.14160000       3.20910000
