18
Properties=species:S:1:pos:R:3 gdb_93759=T pbc="F F F"
C       -0.16110000       1.46460000       0.07800000
C       -0.00220000      -0.02640000      -0.02000000
C       -0.04510000      -0.69290000      -1.21280000
C        0.03800000      -2.13070000      -1.25660000
O        0.15140000      -2.82140000      -2.26240000
C       -0.06640000      -2.84590000       0.10270000
O        0.43480000      -4.14650000       0.00390000
C        0.68730000      -2.04830000       1.16330000
N        0.18390000      -0.67780000       1.16440000
H        0.74370000       1.92790000       0.48940000
H       -0.35890000       1.90220000      -0.90060000
H       -0.99180000       1.71860000       0.74610000
H       -0.15680000      -0.14580000      -2.13990000
H       -1.13940000      -2.84850000       0.37350000
H        0.48400000      -4.30270000      -0.95650000
H        0.54090000      -2.48830000       2.15280000
H        1.76330000      -2.07700000       0.92880000
H        0.41490000      -0.10780000       1.96260000
