17
Properties=species:S:1:pos:R:3 gdb_13398=T pbc="F F F"
C        0.59720000       0.89500000      -0.27070000
O        0.87120000       0.38300000       1.01530000
C       -0.13820000      -0.45980000       1.53510000
C       -0.04120000      -1.89550000       0.99870000
C        1.29850000      -2.58810000       1.35920000
O        0.90330000      -3.68080000       2.23040000
C       -0.44670000      -3.63440000       2.26930000
N       -1.07580000      -2.73600000       1.63360000
H       -0.35500000       1.44660000      -0.28970000
H        1.40870000       1.58260000      -0.52140000
H        0.55530000       0.11190000      -1.04210000
H        0.00310000      -0.47630000       2.62170000
H       -1.14130000      -0.05840000       1.33110000
H       -0.20780000      -1.88680000      -0.08370000
H        1.81940000      -3.01490000       0.49830000
H        1.98490000      -1.93660000       1.90560000
H       -0.90260000      -4.41140000       2.87360000
