22
Properties=species:S:1:pos:R:3 gdb_105240=T pbc="F F F"
C        2.21330000      -0.26950000      -1.15120000
C        1.18290000      -1.06710000      -0.37870000
C        1.57450000      -2.02470000       0.72090000
C        0.78300000      -0.77960000       1.05690000
C        1.48430000       0.32020000       1.84350000
O        1.45580000       0.09370000       3.24570000
C       -0.66950000      -0.87220000       1.42750000
C       -1.46780000      -2.11840000       1.42080000
N       -1.06750000      -1.51460000       2.70700000
H        3.07470000       0.00170000      -0.53520000
H        2.59160000      -0.85620000      -1.99560000
H        1.78710000       0.65500000      -1.55650000
H        0.35230000      -1.40730000      -0.99330000
H        1.10170000      -3.00020000       0.75920000
H        2.61370000      -2.03370000       1.03500000
H        2.54230000       0.37630000       1.57610000
H        1.03270000       1.29480000       1.59480000
H        0.53430000       0.11320000       3.52730000
H       -1.21890000       0.05300000       1.25030000
H       -2.53100000      -2.06810000       1.20350000
H       -0.99330000      -3.04710000       1.12000000
H       -0.25850000      -2.02490000       3.05770000
