15
Properties=species:S:1:pos:R:3 gdb_18996=T pbc="F F F"
N       -0.02900000       1.26830000      -0.02460000
C       -0.03070000       0.00880000      -0.00560000
O        1.07130000      -0.82340000      -0.02750000
C        0.46790000      -2.12330000       0.01100000
C       -0.79080000      -2.14440000      -0.89810000
C       -1.46150000      -3.12960000       0.08660000
C       -0.73150000      -2.11580000       0.99730000
C       -1.18520000      -0.94490000       0.04490000
H        0.92750000       1.62640000      -0.06000000
H        1.22500000      -2.90440000      -0.00090000
H       -0.81610000      -2.14270000      -1.98790000
H       -2.55250000      -3.11010000       0.12040000
H       -1.08670000      -4.15730000       0.09040000
H       -0.68860000      -2.08120000       2.08590000
H       -2.19630000      -0.54830000       0.07060000
