21
Properties=species:S:1:pos:R:3 gdb_96245=T pbc="F F F"
C        0.03520000       1.55050000      -0.00520000
C        0.00450000       0.00590000       0.01780000
C        0.55610000      -0.51880000      -1.32130000
O        0.16260000      -1.82790000      -1.68670000
C        0.51070000      -2.86520000      -0.76890000
C        1.96650000      -2.87480000      -0.39740000
C        2.47340000      -2.14240000       0.60230000
C        1.72100000      -1.28010000       1.51810000
C        0.68480000      -0.45940000       1.28910000
H        1.05910000       1.91730000      -0.13780000
H       -0.57590000       1.94110000      -0.82470000
H       -0.34720000       1.96860000       0.93080000
H       -1.05240000      -0.29520000       0.07510000
H        0.15860000       0.10880000      -2.12550000
H        1.64950000      -0.40950000      -1.33320000
H       -0.09970000      -2.78560000       0.14210000
H        0.23280000      -3.79070000      -1.28110000
H        2.63500000      -3.48550000      -0.99840000
H        3.53670000      -2.23200000       0.82130000
H        2.07070000      -1.32710000       2.54960000
H        0.27830000       0.03670000       2.17120000
