21
Properties=species:S:1:pos:R:3 gdb_83113=T pbc="F F F"
C        0.23200000       1.59860000      -0.11410000
C        0.00790000       0.10910000       0.05200000
C       -1.39490000      -0.35940000      -0.31290000
C       -1.82850000      -1.65530000       0.31790000
C       -1.18340000      -2.26370000       1.31510000
C        0.07850000      -1.74380000       1.94800000
C        0.74200000      -0.61140000       1.18400000
C        1.16280000      -0.81830000      -0.25420000
O        1.01650000      -2.03860000      -0.91880000
H        1.27300000       1.86960000       0.08950000
H       -0.00050000       1.92270000      -1.13590000
H       -0.40060000       2.17620000       0.57130000
H       -2.11470000       0.42030000      -0.02240000
H       -1.48390000      -0.43610000      -1.40650000
H       -2.74820000      -2.08980000      -0.06730000
H       -1.58550000      -3.18590000       1.72800000
H       -0.15850000      -1.40400000       2.96630000
H        0.78880000      -2.57280000       2.07940000
H        1.40420000       0.00250000       1.78940000
H        2.09250000      -0.35510000      -0.57160000
H        0.19790000      -2.45500000      -0.62220000
