16
Properties=species:S:1:pos:R:3 gdb_132733=T pbc="F F F"
C       -0.00260000       1.52370000       0.03240000
C        0.00160000       0.01940000       0.00290000
C        0.05870000      -0.67330000      -1.21950000
N        0.15890000      -0.04200000      -2.44380000
C        0.06480000      -2.06920000      -1.14470000
F        0.10790000      -2.76050000      -2.30030000
C        0.01970000      -2.72560000       0.06760000
N       -0.03320000      -2.07280000       1.23270000
C       -0.04140000      -0.73960000       1.17180000
H        0.87980000       1.93930000      -0.46930000
H       -0.88610000       1.94250000      -0.46890000
H       -0.00900000       1.89180000       1.06100000
H       -0.23020000       0.88560000      -2.50500000
H       -0.05010000      -0.62300000      -3.24140000
H        0.02380000      -3.81230000       0.08740000
H       -0.08430000      -0.22080000       2.12800000
