16
Properties=species:S:1:pos:R:3 gdb_34834=T pbc="F F F"
C       -0.00930000      -1.32200000      -0.05220000
C       -0.00100000      -0.12090000       0.00780000
C       -0.04090000       1.32310000       0.05570000
C        0.00870000       2.08370000       1.41130000
C        1.48710000       1.65690000       1.45640000
N        1.32730000       2.07750000      -0.02080000
C        0.53270000       3.28220000       0.57400000
C       -0.33470000       4.02250000      -0.31640000
C       -1.04960000       4.67610000      -1.02920000
H       -0.00890000      -2.38280000      -0.10670000
H       -0.74810000       1.71280000      -0.67990000
H       -0.74400000       2.09350000       2.20580000
H        2.18770000       2.28650000       2.01020000
H        1.70990000       0.59750000       1.57820000
H        1.20510000       3.96130000       1.10540000
H       -1.67870000       5.24740000      -1.66650000
