21
Properties=species:S:1:pos:R:3 gdb_15193=T pbc="F F F"
C        0.04070000       1.31900000      -0.11400000
O        0.17380000      -0.08020000      -0.08240000
C        0.59040000      -0.56360000       1.17600000
C        0.69150000      -2.08080000       1.10360000
C        1.15970000      -2.70060000       2.41960000
N        1.19930000      -4.15560000       2.32090000
C        2.44840000      -4.73560000       1.83830000
C        2.06180000      -4.84500000       3.27220000
H        0.99380000       1.82740000       0.10530000
H       -0.28210000       1.59600000      -1.12070000
H       -0.70940000       1.67650000       0.61000000
H        1.56520000      -0.12200000       1.45110000
H       -0.12750000      -0.26080000       1.95930000
H       -0.28450000      -2.49680000       0.83360000
H        1.38550000      -2.34970000       0.29880000
H        2.14470000      -2.28240000       2.70360000
H        0.46170000      -2.44230000       3.22620000
H        2.35130000      -5.58670000       1.17060000
H        3.26670000      -4.05790000       1.59690000
H        2.62370000      -4.24150000       3.98400000
H        1.67530000      -5.77780000       3.67310000
