13
Properties=species:S:1:pos:R:3 gdb_17165=T pbc="F F F"
O        0.05740000      -0.09080000      -0.04370000
C        0.11100000       1.10700000      -0.16920000
C        1.36930000       1.89150000      -0.09750000
N        2.74880000       1.33400000      -0.03710000
C        2.98250000       2.81070000       0.05110000
C        1.83890000       3.11580000      -0.96060000
O        1.19350000       4.12450000      -0.13610000
C        1.66610000       3.14770000       0.82780000
H       -0.79820000       1.72760000      -0.32570000
H        2.91370000       0.87770000       0.86210000
H        3.96840000       3.26800000       0.12910000
H        1.85350000       3.23310000      -2.04260000
H        1.46280000       3.30250000       1.88850000
