14
Properties=species:S:1:pos:R:3 gdb_20336=T pbc="F F F"
C       -0.03350000       1.40000000      -0.21600000
C        1.32300000       0.81440000       0.07390000
C        0.08600000      -0.08650000       0.10410000
C        0.66700000      -0.75690000      -1.12610000
C        0.57850000      -1.23330000      -2.41540000
C        1.72050000      -0.64960000      -3.04550000
N        2.41170000       0.17770000      -2.25440000
N        1.79020000       0.01150000      -1.06600000
H       -0.45110000       2.02310000       0.57130000
H       -0.27810000       1.71280000      -1.22570000
H        1.98850000       1.12090000       0.86890000
H       -0.37790000      -0.54870000       0.96320000
H       -0.14810000      -1.89320000      -2.85950000
H        2.06780000      -0.82760000      -4.05440000
