19
Properties=species:S:1:pos:R:3 gdb_96690=T pbc="F F F"
C        0.30460000       1.18340000       0.33770000
N        0.00730000      -0.17680000      -0.05510000
C        0.30390000      -0.65030000      -1.19740000
N       -0.13630000      -1.93540000      -1.55750000
C        0.78510000      -3.06960000      -1.52530000
C       -0.32510000      -2.94550000      -0.53470000
C        1.02350000       0.05060000      -2.31290000
O        1.71930000      -0.76750000      -3.26040000
C        0.56170000      -0.07310000      -3.70880000
H        1.02780000       1.72670000      -0.28570000
H       -0.62430000       1.76780000       0.35320000
H        0.68510000       1.17620000       1.36480000
H        0.71290000      -3.75710000      -2.36240000
H        1.79520000      -2.88320000      -1.17110000
H       -0.07580000      -2.65740000       0.48190000
H       -1.21850000      -3.55340000      -0.64280000
H        1.56160000       0.95320000      -2.03970000
H       -0.30310000      -0.69890000      -3.91400000
H        0.74440000       0.74740000      -4.40140000
