19
Properties=species:S:1:pos:R:3 gdb_121781=T pbc="F F F"
C       -0.07470000       1.38010000       0.04810000
O       -0.06130000      -0.02590000      -0.00760000
C        0.66790000      -0.52410000      -1.10660000
C        0.63270000      -2.04540000      -1.03840000
C        1.35830000      -2.71810000      -2.23600000
C        2.78430000      -2.37140000      -2.28280000
C        3.94750000      -2.07340000      -2.31300000
C        1.16920000      -4.17220000      -2.20650000
C        0.98890000      -5.35870000      -2.16700000
H        0.94130000       1.79590000       0.13980000
H       -0.54440000       1.82090000      -0.84590000
H       -0.65460000       1.66730000       0.92850000
H        0.22390000      -0.17200000      -2.05560000
H        1.70760000      -0.16090000      -1.08230000
H        1.09010000      -2.38230000      -0.10410000
H       -0.40790000      -2.38240000      -1.03520000
H        0.89270000      -2.33970000      -3.15890000
H        4.97820000      -1.81940000      -2.34490000
H        0.83910000      -6.40960000      -2.13910000
