18
Properties=species:S:1:pos:R:3 gdb_64883=T pbc="F F F"
C       -0.39520000       1.78210000       0.22040000
C        0.01880000       0.31460000       0.14830000
C        1.17590000      -0.04230000      -0.83020000
N        1.96940000      -0.46370000       0.32820000
C        0.94640000      -0.17220000       1.32510000
C        3.09280000      -1.20420000       0.46510000
O        3.50880000      -1.62250000       1.52590000
C       -1.19790000      -0.57610000       0.01070000
O       -1.35110000      -1.42000000      -0.83340000
H        0.47480000       2.41690000       0.41270000
H       -0.85590000       2.11060000      -0.71710000
H       -1.11690000       1.94820000       1.02800000
H        0.92480000      -0.84540000      -1.52890000
H        1.59410000       0.81120000      -1.37450000
H        1.22280000       0.60980000       2.04050000
H        0.60830000      -1.05520000       1.87910000
H        3.59810000      -1.37560000      -0.50730000
H       -1.97440000      -0.39490000       0.78980000
