18
Properties=species:S:1:pos:R:3 gdb_46882=T pbc="F F F"
O       -0.13430000       1.34930000      -1.75810000
C       -0.01810000       1.54590000      -0.56150000
C       -1.23900000       1.52460000       0.34190000
C       -1.40710000       2.73450000       1.27430000
C       -0.50560000       2.74160000       2.49140000
N       -0.01720000       1.45320000       2.98050000
C        0.95730000       2.44000000       2.44050000
C        1.73530000       2.12880000       1.21960000
C        1.34090000       1.76910000      -0.01070000
H       -2.10390000       1.43830000      -0.31940000
H       -1.18670000       0.62120000       0.95950000
H       -1.27060000       3.67310000       0.72250000
H       -2.44480000       2.73900000       1.62960000
H       -0.78590000       3.48460000       3.23770000
H        0.03580000       1.44000000       3.99530000
H        1.55490000       2.95560000       3.18890000
H        2.80880000       2.24900000       1.35770000
H        2.10480000       1.62260000      -0.76980000
