17
Properties=species:S:1:pos:R:3 gdb_78977=T pbc="F F F"
O       -0.00630000       1.44150000       0.03730000
C        0.02180000       0.03200000       0.00210000
C       -1.37580000      -0.52460000      -0.28310000
C       -1.72420000       0.01190000      -1.68720000
C       -1.45590000      -1.33040000      -2.32250000
C       -0.39590000      -0.24810000      -2.37650000
C        0.63570000      -0.61440000      -1.27340000
O        0.38920000      -2.00080000      -0.99110000
C       -1.03710000      -1.92410000      -0.96530000
H        0.89540000       1.75490000       0.15660000
H        0.48290000      -0.39690000       0.90120000
H       -2.12390000      -0.49350000       0.50500000
H       -2.41870000       0.79520000      -1.95650000
H       -1.88730000      -1.82470000      -3.18320000
H       -0.13130000       0.23440000      -3.30640000
H        1.69040000      -0.44700000      -1.48790000
H       -1.47490000      -2.84550000      -0.58930000
