15
Properties=species:S:1:pos:R:3 gdb_133736=T pbc="F F F"
C        0.87220000      -0.32510000       1.29750000
C        0.07210000       0.05960000       0.05260000
C        0.74480000      -0.39890000      -1.26270000
C        0.87310000      -1.85670000      -1.33100000
N        0.97470000      -3.00680000      -1.34870000
C       -0.01460000       0.11330000      -2.49440000
F       -0.04190000       1.45290000      -2.49070000
F        0.57490000      -0.28160000      -3.62570000
F       -1.27720000      -0.32430000      -2.50890000
H        0.98860000      -1.40980000       1.37740000
H        1.87160000       0.12270000       1.28320000
H        0.36170000       0.02620000       2.19800000
H       -0.93300000      -0.37040000       0.09400000
H       -0.04370000       1.14560000      -0.00640000
H        1.75090000       0.03220000      -1.33000000
