21
Properties=species:S:1:pos:R:3 gdb_92510=T pbc="F F F"
C       -0.25160000       1.50080000       0.06370000
C       -0.00690000      -0.00910000      -0.00930000
C        0.91350000      -0.42440000      -1.21000000
C        1.52670000      -1.74020000      -0.71800000
O        2.98210000      -1.95600000      -0.63900000
C        2.88920000      -2.19330000       0.80080000
C        1.50290000      -1.59910000       0.76480000
C        0.74880000      -0.59530000       1.20540000
C        0.66560000      -0.02540000       2.58540000
H        0.68810000       2.04900000       0.19530000
H       -0.71700000       1.85780000      -0.86080000
H       -0.91740000       1.76580000       0.89150000
H       -0.98610000      -0.49970000      -0.11850000
H        0.37430000      -0.49700000      -2.15950000
H        1.71150000       0.31850000      -1.32030000
H        1.05790000      -2.63020000      -1.16040000
H        2.95670000      -3.26660000       1.02470000
H        3.65340000      -1.65290000       1.37060000
H        1.36280000      -0.52550000       3.26310000
H        0.88590000       1.04830000       2.59630000
H       -0.34330000      -0.13980000       3.00370000
