23
Properties=species:S:1:pos:R:3 gdb_81348=T pbc="F F F"
C       -0.15010000       1.55540000      -0.07820000
C        0.07370000       0.04250000      -0.04550000
C        0.95900000      -0.50700000      -1.18620000
C        1.19600000      -1.97530000      -0.72250000
C        1.99990000      -1.27660000       0.41460000
C        2.40010000      -0.21250000      -0.65790000
O        3.48140000      -0.51740000      -1.50760000
C        0.87790000      -0.55220000       1.19140000
C        1.36620000       0.43420000       2.25380000
H        0.78490000       2.12300000      -0.07230000
H       -0.69720000       1.83550000      -0.98490000
H       -0.74400000       1.89000000       0.77830000
H       -0.91100000      -0.43690000      -0.09290000
H        0.66980000      -0.25810000      -2.20900000
H        0.32100000      -2.56780000      -0.43840000
H        1.81050000      -2.56710000      -1.40660000
H        2.75680000      -1.80130000       1.00060000
H        2.60490000       0.79970000      -0.30440000
H        3.36640000      -1.40550000      -1.85940000
H        0.25270000      -1.29740000       1.69680000
H        2.03350000       1.19980000       1.84750000
H        0.52900000       0.94900000       2.73590000
H        1.91730000      -0.09800000       3.03670000
