13
Properties=species:S:1:pos:R:3 gdb_190=T pbc="F F F"
C       -0.01850000       1.50200000       0.05920000
C       -0.00260000       0.01250000      -0.04580000
C       -0.05930000      -0.82130000      -1.14110000
C       -0.00850000      -2.16610000      -0.67450000
C        0.07790000      -2.11880000       0.69540000
N        0.08120000      -0.79500000       1.06540000
H        0.89460000       1.89680000       0.52320000
H       -0.09680000       1.94250000      -0.93730000
H       -0.86800000       1.86890000       0.64950000
H       -0.12990000      -0.49520000      -2.16810000
H       -0.03300000      -3.06150000      -1.27630000
H        0.13680000      -2.90200000       1.43400000
H        0.13660000      -0.46150000       2.01190000
