16
Properties=species:S:1:pos:R:3 gdb_62328=T pbc="F F F"
O        0.05730000       1.48240000       0.15860000
C       -0.02980000       0.08700000       0.02410000
C        1.03740000      -0.61130000       0.70940000
C        1.95980000      -1.15710000       1.25540000
C       -1.33790000      -0.65140000       0.06940000
C       -2.45240000      -0.06920000      -0.81800000
C       -2.11720000       1.12560000      -1.62130000
N       -1.62470000      -0.20340000      -2.06670000
C       -0.49460000      -0.70170000      -1.20360000
H        0.93290000       1.74450000      -0.15010000
H        2.76530000      -1.63990000       1.75150000
H       -1.52560000      -1.41640000       0.81120000
H       -3.45250000      -0.48930000      -0.78130000
H       -2.90400000       1.47760000      -2.28350000
H       -1.43480000       1.87590000      -1.25570000
H        0.12370000      -1.48890000      -1.61670000
