25
Properties=species:S:1:pos:R:3 gdb_123020=T pbc="F F F"
C        0.09870000       1.45040000       0.18790000
C       -0.04180000      -0.07250000       0.24430000
C       -1.44860000      -0.54230000      -0.10120000
O       -1.49080000      -1.94960000      -0.02270000
C       -2.75680000      -2.49040000      -0.34660000
C       -2.66740000      -3.99110000      -0.27330000
C       -2.83740000      -4.71050000       1.04320000
C       -3.87500000      -4.87370000      -0.04020000
C       -5.28300000      -4.34130000       0.12780000
H        1.11630000       1.76130000       0.44160000
H       -0.12590000       1.83610000      -0.81280000
H       -0.58300000       1.94100000       0.89160000
H        0.66220000      -0.54610000      -0.44950000
H        0.21120000      -0.44150000       1.24490000
H       -2.18240000      -0.09530000       0.59370000
H       -1.72680000      -0.20400000      -1.11570000
H       -3.52190000      -2.10440000       0.34670000
H       -3.05390000      -2.16920000      -1.36090000
H       -1.91340000      -4.39580000      -0.94310000
H       -2.17740000      -5.53870000       1.27640000
H       -3.10770000      -4.10430000       1.90290000
H       -3.83740000      -5.81950000      -0.57540000
H       -5.30870000      -3.42340000       0.72180000
H       -5.75090000      -4.12560000      -0.83950000
H       -5.91150000      -5.07720000       0.64180000
