17
Properties=species:S:1:pos:R:3 gdb_125992=T pbc="F F F"
C       -0.17890000       1.60560000       0.02900000
C        0.03510000       0.09690000       0.07100000
C        1.16170000      -0.48480000      -0.88850000
N        1.83620000      -0.91360000       0.34060000
N        2.81030000      -1.65770000       0.85710000
C        2.47930000      -1.66670000       2.16340000
C        1.27780000      -0.95980000       2.44410000
O        0.73400000      -0.84230000       3.68890000
C        0.89180000      -0.48210000       1.20170000
H        0.76900000       2.13980000       0.14580000
H       -0.63210000       1.90850000      -0.92080000
H       -0.84770000       1.92770000       0.83370000
H       -0.91580000      -0.42840000      -0.06490000
H        0.84520000      -1.30970000      -1.53250000
H        1.71730000       0.25640000      -1.47050000
H        3.10970000      -2.17180000       2.88000000
H       -0.07810000      -0.33200000       3.62890000
