18
Properties=species:S:1:pos:R:3 gdb_54859=T pbc="F F F"
O        0.28320000       0.34050000      -0.82780000
C        0.09720000       1.07950000       0.10850000
O        1.02090000       1.25510000       1.05360000
C       -1.22180000       1.82390000       0.20730000
C       -2.08010000       2.11270000       1.43240000
C       -1.45120000       2.15420000       2.81290000
N       -0.23770000       2.97280000       2.61400000
H        0.11560000       3.38020000       3.47070000
H        0.69450000       1.89940000       1.74820000
C       -0.51840000       3.97270000       1.56350000
C       -1.49290000       3.25750000       0.64580000
H       -1.81900000       1.53990000      -0.65200000
H       -3.12980000       1.85180000       1.37350000
H       -2.16350000       2.61200000       3.51560000
H       -1.17020000       1.17120000       3.20600000
H       -1.00010000       4.88040000       1.95700000
H        0.41810000       4.26790000       1.07830000
H       -2.09400000       3.87120000      -0.01410000
