22
Properties=species:S:1:pos:R:3 gdb_109547=T pbc="F F F"
C       -0.00640000       1.66120000      -0.07880000
C       -0.09220000       0.13140000      -0.02160000
C        0.70850000      -0.48700000       1.12160000
C        0.71930000      -2.05140000       1.27790000
C       -0.02490000      -2.92910000       0.27970000
C        2.24850000      -1.93390000       1.09860000
O        3.18900000      -2.68840000       1.10460000
N        2.16900000      -0.57290000       0.93650000
C        3.22140000       0.41180000       0.90990000
H        1.01660000       2.00470000      -0.25990000
H       -0.63370000       2.05830000      -0.88260000
H       -0.34580000       2.11130000       0.86070000
H       -1.14190000      -0.16390000       0.10390000
H        0.24220000      -0.29760000      -0.97270000
H        0.44840000       0.02060000       2.06240000
H        0.47320000      -2.35260000       2.30120000
H        0.21490000      -2.66710000      -0.75470000
H        0.25910000      -3.97490000       0.42900000
H       -1.10940000      -2.85280000       0.40860000
H        4.17030000      -0.12380000       0.99860000
H        3.23190000       0.98540000      -0.02380000
H        3.13120000       1.11450000       1.74790000
