19
Properties=species:S:1:pos:R:3 gdb_103694=T pbc="F F F"
C       -0.06630000       1.56440000       0.12190000
C       -0.06740000       0.05000000       0.03750000
C       -1.34530000      -0.54790000      -0.53110000
O       -1.54530000      -0.21400000      -1.89740000
C        1.22770000      -0.65990000      -0.27500000
C        0.65160000      -0.72300000       1.13480000
O        1.25570000       0.07620000       2.12100000
C        0.12720000      -1.97100000       1.63020000
C       -0.26560000      -3.01580000       2.08010000
H        0.83570000       1.93740000       0.60700000
H       -0.11630000       2.00000000      -0.88280000
H       -0.92820000       1.92550000       0.69500000
H       -1.30260000      -1.63890000      -0.49390000
H       -2.20270000      -0.23400000       0.08500000
H       -1.74300000       0.72580000      -1.94940000
H        1.19300000      -1.55460000      -0.88670000
H        2.12300000      -0.05660000      -0.38300000
H        1.99350000      -0.42490000       2.48650000
H       -0.62700000      -3.93370000       2.47320000
