23
Properties=species:S:1:pos:R:3 gdb_39291=T pbc="F F F"
C       -0.02280000       1.49560000       0.18690000
C        1.52300000       1.40840000       0.02080000
C        2.16840000       1.08420000       1.37410000
C        1.27710000       0.09030000       2.15920000
C        0.49850000      -0.85020000       1.21260000
C        1.42040000      -1.90200000       0.55180000
C        2.14610000      -1.14760000      -0.59660000
C        1.28110000       0.10220000      -0.82290000
C       -0.03370000      -0.04130000      -0.00540000
H       -0.42440000       1.92450000       1.10990000
H       -0.49190000       1.99680000      -0.66430000
H        2.03260000       2.23560000      -0.48100000
H        3.17320000       0.67370000       1.22040000
H        2.30100000       2.00400000       1.95590000
H        1.87170000      -0.48950000       2.87340000
H        0.55390000       0.65610000       2.75590000
H       -0.30870000      -1.33370000       1.77280000
H        2.10740000      -2.36260000       1.26910000
H        0.80990000      -2.71010000       0.13260000
H        3.17670000      -0.89130000      -0.32980000
H        2.20390000      -1.75980000      -1.50170000
H        1.12830000       0.35080000      -1.87590000
H       -0.90750000      -0.51070000      -0.46570000
