22
Properties=species:S:1:pos:R:3 gdb_96451=T pbc="F F F"
C       -0.18220000       1.55920000      -0.02610000
C       -0.01820000       0.03370000       0.00780000
C        0.46920000      -0.51360000      -1.34990000
O        1.65840000       0.08800000      -1.82690000
C        2.85760000      -0.31570000      -1.18940000
C        3.03720000       0.26160000       0.21390000
N        2.28640000      -0.49420000       1.21430000
C        1.51110000       0.23980000       2.20780000
C        0.82190000      -0.55040000       1.14770000
H        0.75390000       2.07100000      -0.25870000
H       -0.90170000       1.83850000      -0.80360000
H       -0.55790000       1.93700000       0.92880000
H       -1.02180000      -0.39250000       0.14950000
H        0.59270000      -1.60740000      -1.28530000
H       -0.28590000      -0.30660000      -2.11670000
H        2.92290000      -1.41460000      -1.14280000
H        3.66460000       0.04670000      -1.83460000
H        4.09830000       0.19890000       0.48930000
H        2.77860000       1.33150000       0.18370000
H        1.56450000      -0.12700000       3.23050000
H        1.48420000       1.32470000       2.12180000
H        0.46210000      -1.53730000       1.44050000
