18
Properties=species:S:1:pos:R:3 gdb_70511=T pbc="F F F"
C        0.23160000       1.48990000      -0.05400000
C       -0.00260000      -0.00230000      -0.01980000
C       -0.85840000      -0.61500000       1.05610000
N        0.58470000      -0.74070000       1.12050000
C        1.16260000      -2.06400000       0.89320000
C        0.75810000      -2.76680000      -0.37130000
C        0.17850000      -2.13360000      -1.39600000
C       -0.08310000      -0.68030000      -1.36090000
O       -0.33460000      -0.04940000      -2.37130000
H        1.19300000       1.72170000      -0.52280000
H       -0.54890000       1.98110000      -0.63970000
H        0.23560000       1.89320000       0.96100000
H       -1.30300000       0.04220000       1.79930000
H       -1.45280000      -1.48800000       0.79570000
H        2.25790000      -1.96460000       0.90700000
H        0.91380000      -2.68790000       1.76170000
H        0.98660000      -3.82910000      -0.43570000
H       -0.06850000      -2.63620000      -2.32550000
