15
Properties=species:S:1:pos:R:3 gdb_74052=T pbc="F F F"
N        0.03890000       1.37930000       0.05620000
C       -0.03560000       0.01900000      -0.04200000
C       -1.18710000      -0.68490000      -0.12960000
C       -1.20190000      -2.13360000      -0.09270000
O       -2.22110000      -2.79320000      -0.05340000
C        0.15700000      -2.82980000      -0.13910000
N        0.24070000      -4.08910000      -0.12100000
O        1.27780000      -2.04970000      -0.30320000
C        1.28570000      -0.68990000       0.08310000
H        0.89310000       1.84210000      -0.20960000
H       -0.80120000       1.91280000      -0.10250000
H       -2.15220000      -0.19120000      -0.18450000
H        1.22100000      -4.37410000      -0.18570000
H        2.03620000      -0.20090000      -0.55060000
H        1.63580000      -0.60040000       1.12300000
