15
Properties=species:S:1:pos:R:3 gdb_44307=T pbc="F F F"
N       -0.08660000       1.19640000      -0.19000000
C       -0.06190000      -0.04580000       0.00320000
O        1.05510000      -0.87060000       0.07340000
C        0.51960000      -2.22930000       0.30000000
C       -0.70790000      -2.34200000      -0.60640000
C       -1.75170000      -2.74150000       0.47790000
N       -2.55880000      -1.43970000       0.40400000
C       -1.13520000      -1.05690000       0.20110000
C       -0.62830000      -2.05510000       1.29650000
H        0.86080000       1.56510000      -0.29240000
H        1.35890000      -2.91660000       0.37310000
H       -0.77200000      -2.45220000      -1.68850000
H       -2.24260000      -3.69790000       0.65160000
H       -3.06860000      -1.38590000      -0.48220000
H       -0.61400000      -1.83780000       2.36220000
