19
Properties=species:S:1:pos:R:3 gdb_26270=T pbc="F F F"
C       -0.01120000       1.54120000      -0.01180000
C       -0.01300000       0.00300000       0.02530000
C        0.76080000      -0.52400000       1.24620000
C       -1.43080000      -0.52950000       0.02030000
N       -2.21320000      -0.19330000       1.05630000
C       -3.45900000      -0.66260000       1.04720000
C       -3.94660000      -1.46520000       0.02170000
C       -3.05470000      -1.75310000      -1.00280000
N       -1.80140000      -1.29420000      -1.01550000
H        1.01570000       1.92030000      -0.02060000
H       -0.51910000       1.91880000      -0.90490000
H       -0.52210000       1.94460000       0.86710000
H        0.45690000      -0.37670000      -0.88670000
H        0.27860000      -0.19940000       2.17260000
H        0.80360000      -1.61780000       1.24900000
H        1.78770000      -0.14510000       1.23830000
H       -4.08840000      -0.38620000       1.89110000
H       -4.96170000      -1.84300000       0.02220000
H       -3.35010000      -2.37390000      -1.84640000
