13
Properties=species:S:1:pos:R:3 gdb_17227=T pbc="F F F"
N        0.10810000      -1.10130000      -0.08640000
C        0.03090000       0.05310000      -0.03030000
C       -0.05690000       1.46860000       0.04140000
C       -1.13750000       2.34320000       0.68640000
C       -0.42990000       3.51640000      -0.03460000
O        0.85930000       3.60520000       0.64390000
C        1.20120000       2.40330000      -0.01590000
C        0.17510000       2.50180000      -1.07730000
H       -2.11960000       2.13260000       0.25850000
H       -1.18520000       2.39840000       1.77680000
H       -0.89750000       4.47940000      -0.21860000
H        2.21720000       2.03400000       0.00880000
H        0.17490000       2.39960000      -2.15290000
