19
Properties=species:S:1:pos:R:3 gdb_34656=T pbc="F F F"
C        0.07950000      -1.20940000      -0.31060000
C       -0.00140000      -0.02020000      -0.12850000
C       -0.02200000       1.38690000       0.08730000
C       -1.18170000       2.06590000       0.05230000
C       -1.36200000       3.55500000       0.19960000
C       -0.62400000       4.21770000       1.37450000
C        0.90010000       4.17500000       1.27360000
O        1.44650000       2.88000000       1.43080000
C        1.34690000       2.03660000       0.30520000
H        0.13010000      -2.25760000      -0.47070000
H       -2.08550000       1.49020000      -0.12800000
H       -1.04730000       4.04690000      -0.73510000
H       -2.43210000       3.76580000       0.29330000
H       -0.92970000       5.27030000       1.43000000
H       -0.92460000       3.74330000       2.31530000
H        1.22800000       4.60980000       0.31300000
H        1.33910000       4.77860000       2.07490000
H        2.08760000       1.24780000       0.45450000
H        1.63090000       2.58790000      -0.60850000
