19
Properties=species:S:1:pos:R:3 gdb_112984=T pbc="F F F"
O       -0.10500000       1.43150000       0.27790000
C       -0.27420000       0.19000000      -0.37590000
C       -1.37900000      -0.61590000       0.28230000
C       -1.42180000      -2.13340000       0.02090000
C       -1.12570000      -2.26310000       1.53580000
O       -1.05920000      -0.82780000       1.68830000
C       -2.22020000      -2.88250000       2.36730000
C       -2.85540000      -2.15450000       3.47130000
O       -3.51900000      -2.31460000       2.21210000
H        0.00000000       1.22370000       1.21460000
H       -0.53180000       0.40430000      -1.41950000
H        0.65840000      -0.39930000      -0.37250000
H       -2.33930000      -0.09700000       0.18960000
H       -2.38920000      -2.52750000      -0.28910000
H       -0.63650000      -2.50720000      -0.63880000
H       -0.16790000      -2.73760000       1.78830000
H       -2.20200000      -3.97420000       2.39810000
H       -3.29000000      -2.70830000       4.30190000
H       -2.52230000      -1.14270000       3.68500000
