18
Properties=species:S:1:pos:R:3 gdb_87065=T pbc="F F F"
O        0.15210000       1.31600000       0.26440000
C        0.03260000      -0.05920000       0.11810000
C       -0.46930000      -0.81000000       1.30330000
C       -1.36050000      -0.70540000       0.06180000
C       -2.48550000       0.18500000       0.09500000
C       -3.43250000       0.92820000       0.05850000
C       -1.51320000      -1.94280000      -0.78840000
C       -2.80660000      -2.65990000      -0.89220000
N       -2.26740000      -1.91460000      -2.04740000
H       -0.23030000       1.73990000      -0.51220000
H        0.78940000      -0.53300000      -0.50810000
H       -0.05020000      -1.78430000       1.52920000
H       -0.75820000      -0.21360000       2.16000000
H       -4.26880000       1.58290000       0.06190000
H       -0.59710000      -2.52850000      -0.84600000
H       -2.82300000      -3.73990000      -1.00760000
H       -3.65560000      -2.23890000      -0.36130000
H       -2.75850000      -1.02470000      -2.11940000
