17
Properties=species:S:1:pos:R:3 gdb_71674=T pbc="F F F"
O       -0.10350000       1.40680000      -0.01420000
C        0.04240000       0.02470000      -0.00370000
C        0.91630000      -0.78140000      -1.01040000
C        0.73440000      -1.91930000       0.02960000
C       -0.77950000      -2.17110000       0.07340000
C       -1.29150000      -1.51500000       1.33970000
O       -0.20980000      -1.12100000       2.14660000
C        0.72260000      -0.81120000       1.14870000
C       -1.28970000      -0.73160000       0.04610000
H        0.77190000       1.80650000      -0.00460000
H        0.52510000      -0.93700000      -2.01820000
H        1.94870000      -0.41700000      -1.05730000
H        1.40130000      -2.77750000       0.07330000
H       -1.26850000      -3.00450000      -0.41130000
H       -2.17690000      -1.81740000       1.88200000
H        1.66940000      -0.47120000       1.56310000
H       -2.17500000      -0.38370000      -0.46710000
