18
Properties=species:S:1:pos:R:3 gdb_93112=T pbc="F F F"
O        0.04010000       1.40410000      -0.10190000
C        0.02150000      -0.01370000      -0.00350000
C        0.68710000      -0.50840000       1.28570000
N       -0.15030000      -0.29760000       2.46770000
C       -1.40000000      -0.20710000       2.29760000
O       -2.12080000      -0.27010000       1.14880000
C       -1.38850000      -0.56210000      -0.03890000
C       -2.21460000      -0.56260000      -1.27790000
C       -1.70710000      -1.87270000      -0.70190000
H       -0.29860000       1.76510000       0.72500000
H        0.56770000      -0.37470000      -0.88060000
H        0.92460000      -1.57700000       1.20460000
H        1.63450000       0.01990000       1.43350000
H       -2.06900000      -0.03390000       3.13840000
H       -3.27010000      -0.34590000      -1.16000000
H       -1.76470000      -0.17390000      -2.18440000
H       -0.90790000      -2.39760000      -1.21520000
H       -2.42900000      -2.51040000      -0.20510000
