19
Properties=species:S:1:pos:R:3 gdb_116388=T pbc="F F F"
C        0.09210000       1.60200000       0.06150000
C        0.02300000       0.07550000      -0.01370000
C        0.67560000      -0.54210000      -1.27770000
C        0.71610000      -2.07080000      -1.18810000
O       -0.59890000      -2.58550000      -1.36950000
C       -1.03390000      -2.32680000      -2.65650000
O       -1.04540000      -0.93240000      -2.99990000
C       -0.08720000      -0.09260000      -2.52160000
O        0.05810000       0.98220000      -3.03650000
H        1.13100000       1.94900000       0.06640000
H       -0.40550000       2.07150000      -0.78980000
H       -0.38440000       1.95820000       0.97990000
H        0.53630000      -0.35660000       0.85460000
H       -1.01650000      -0.26520000       0.04580000
H        1.69160000      -0.14650000      -1.37870000
H        1.38980000      -2.49680000      -1.94870000
H        1.05450000      -2.40400000      -0.20390000
H       -0.40110000      -2.83840000      -3.40000000
H       -2.06760000      -2.66570000      -2.73950000
