15
Properties=species:S:1:pos:R:3 gdb_9224=T pbc="F F F"
O       -0.40310000       1.18150000      -0.55100000
C       -0.18530000      -0.05840000       0.06160000
C       -1.46890000      -0.87780000       0.03430000
O       -2.54380000      -0.42160000      -0.25120000
C       -1.28500000      -2.36050000       0.38470000
O       -2.46370000      -2.96740000       0.85360000
C       -3.43620000      -3.20780000      -0.06070000
N       -4.53090000      -3.69950000       0.32090000
H        0.39100000       1.71370000      -0.44680000
H        0.61200000      -0.64790000      -0.42660000
H        0.10520000       0.03080000       1.12410000
H       -0.89050000      -2.86880000      -0.51050000
H       -0.53720000      -2.48000000       1.17490000
H       -3.14640000      -2.95620000      -1.08740000
H       -5.14560000      -3.83980000      -0.47790000
