17
Properties=species:S:1:pos:R:3 gdb_75629=T pbc="F F F"
C       -0.01620000       1.51460000       0.17610000
C       -0.02920000       0.02540000       0.03080000
C        1.12620000      -0.83100000      -0.35340000
C        0.58810000      -1.04650000       1.04710000
O        1.34270000      -0.82840000       2.16980000
C       -0.74990000      -1.68320000       1.03910000
O       -1.39040000      -2.26420000       1.87890000
C       -1.29920000      -0.83010000      -0.14320000
O       -2.50710000      -0.21640000       0.21550000
H        0.88770000       1.84790000       0.69490000
H       -0.04880000       2.00500000      -0.80350000
H       -0.89020000       1.84130000       0.74490000
H        1.02540000      -1.59860000      -1.11820000
H        2.09150000      -0.33140000      -0.34620000
H        2.16090000      -1.33270000       2.10730000
H       -1.38010000      -1.31160000      -1.12680000
H       -2.86980000      -0.73220000       0.94930000
