23
Properties=species:S:1:pos:R:3 gdb_119175=T pbc="F F F"
O       -0.10450000       1.50300000       0.17190000
C        0.04120000       0.11860000      -0.11570000
C       -1.30120000      -0.53800000       0.19040000
C       -1.36760000      -2.05740000       0.07670000
C       -0.32400000      -2.82600000      -0.71030000
C       -0.33390000      -2.89540000       0.79810000
C       -2.75590000      -2.65180000       0.03870000
C       -3.96000000      -2.00570000       0.67920000
C       -3.87030000      -2.11170000      -0.82470000
H        0.72200000       1.94260000      -0.04720000
H        0.30660000      -0.03620000      -1.17240000
H        0.84390000      -0.32470000       0.49440000
H       -1.58550000      -0.23790000       1.20630000
H       -2.03610000      -0.07920000      -0.48130000
H       -0.65660000      -3.69610000      -1.26670000
H        0.48590000      -2.28790000      -1.18890000
H        0.46260000      -2.39190000       1.33560000
H       -0.66700000      -3.81360000       1.27080000
H       -2.73560000      -3.73700000       0.10960000
H       -4.66450000      -2.64080000       1.20500000
H       -3.84450000      -1.02070000       1.11700000
H       -3.69950000      -1.19870000      -1.38450000
H       -4.50940000      -2.82460000      -1.33430000
