15
Properties=species:S:1:pos:R:3 gdb_43266=T pbc="F F F"
O        0.03700000      -0.02380000      -0.04340000
C       -0.00570000       1.18210000       0.00410000
C       -1.21980000       2.04330000       0.09470000
C       -0.87870000       3.33560000       0.01950000
C        0.61020000       3.53030000      -0.07210000
C        1.35890000       3.02710000       1.16260000
C        1.18470000       2.12260000      -0.03620000
C        1.15200000       4.58830000      -0.86930000
C        1.59180000       5.48770000      -1.53530000
H       -2.21420000       1.63540000       0.21690000
H       -1.55250000       4.18350000       0.05150000
H        2.35300000       3.42700000       1.32930000
H        0.77350000       2.83810000       2.05570000
H        2.05690000       1.84410000      -0.61220000
H        1.98330000       6.27670000      -2.12840000
