21
Properties=species:S:1:pos:R:3 gdb_74396=T pbc="F F F"
C        0.00400000       1.51450000       0.04970000
C        0.01060000       0.01580000      -0.02150000
C        0.00830000      -0.68810000      -1.15630000
C        0.00800000      -2.20540000      -1.09280000
O       -0.06220000      -2.83120000      -2.34710000
C       -1.06070000      -2.64500000      -0.06290000
C        0.00330000      -2.27930000       1.01620000
C        1.08170000      -2.64420000      -0.04630000
C        0.00630000      -0.76390000       1.28150000
H        0.87990000       1.89080000       0.59450000
H        0.00380000       1.96590000      -0.94630000
H       -0.87750000       1.88280000       0.59060000
H       -0.01460000      -0.21550000      -2.13570000
H        0.64100000      -2.47490000      -2.90110000
H       -2.01580000      -2.11450000      -0.06540000
H       -1.22470000      -3.72470000      -0.10920000
H       -0.00460000      -2.85020000       1.94620000
H        1.25020000      -3.72340000      -0.09130000
H        2.03430000      -2.10770000      -0.03080000
H        0.88070000      -0.48490000       1.88780000
H       -0.87160000      -0.47930000       1.88020000
