18
Properties=species:S:1:pos:R:3 gdb_97779=T pbc="F F F"
C       -0.22550000       1.61430000       0.11010000
C        0.23300000       0.16100000      -0.11100000
C        0.88360000      -0.41970000       1.05770000
C        1.40320000      -0.88620000       2.03940000
C        2.06290000      -1.43510000       3.18860000
N        1.22950000      -1.98600000       4.27610000
C        2.06900000      -2.91520000       3.49510000
C        1.41000000      -3.87780000       2.65990000
C        0.89750000      -4.70530000       1.95500000
H        0.62480000       2.25760000       0.35220000
H       -0.70670000       2.00340000      -0.79220000
H       -0.93940000       1.67410000       0.93590000
H       -0.62980000      -0.45910000      -0.38560000
H        0.91890000       0.11810000      -0.96700000
H        2.97420000      -0.91670000       3.48290000
H        1.67430000      -1.80220000       5.17260000
H        2.98110000      -3.27820000       3.96560000
H        0.43080000      -5.42800000       1.33280000
