17
Properties=species:S:1:pos:R:3 gdb_115084=T pbc="F F F"
C        0.17130000       1.20820000      -0.61960000
N       -0.23280000       0.35500000       0.49400000
C       -1.47970000      -0.38030000       0.26760000
C       -1.32830000      -1.67650000      -0.54830000
N       -0.60740000      -2.70930000       0.19270000
C       -0.73560000      -2.70270000       1.44520000
O       -1.49540000      -1.85120000       2.21870000
C       -2.05960000      -0.72350000       1.63490000
O       -2.89100000      -0.11830000       2.23520000
H        1.12980000       1.67490000      -0.37750000
H        0.28170000       0.68970000      -1.58690000
H       -0.56490000       2.00850000      -0.74860000
H        0.51250000      -0.29570000       0.71960000
H       -2.18980000       0.30100000      -0.20740000
H       -2.31280000      -2.07480000      -0.83140000
H       -0.79240000      -1.47600000      -1.48110000
H       -0.24800000      -3.43640000       2.08140000
