16
Properties=species:S:1:pos:R:3 gdb_124201=T pbc="F F F"
C        0.01230000       1.50070000      -0.00130000
C       -0.00190000       0.04610000       0.02850000
C       -0.01950000      -1.15630000       0.05160000
C       -0.02710000      -2.61480000       0.08060000
N       -1.36880000      -3.18960000       0.02220000
N       -2.08510000      -3.41450000       1.11730000
C       -3.24460000      -3.87130000       0.64040000
C       -3.17300000      -3.89650000      -0.75910000
N       -1.97010000      -3.45500000      -1.13140000
H        0.83290000       1.87570000      -0.62240000
H       -0.92310000       1.89240000      -0.41540000
H        0.13390000       1.91940000       1.00340000
H        0.52290000      -3.02510000      -0.77080000
H        0.43030000      -2.98950000       1.00030000
H       -4.04390000      -4.15810000       1.30470000
H       -3.90090000      -4.20840000      -1.49070000
