18
Properties=species:S:1:pos:R:3 gdb_87545=T pbc="F F F"
C       -0.10290000       1.50810000      -0.01960000
N       -0.01090000       0.05590000       0.06440000
C        1.30400000      -0.53260000      -0.16320000
C        0.70700000      -0.49570000       1.19990000
C        1.25570000       0.18650000       2.44690000
C        0.16010000       0.32190000       3.45110000
C        0.82750000      -1.03760000       3.30260000
C        0.32290000      -1.71000000       2.05060000
O       -0.05130000      -2.81670000       1.78770000
H        0.78690000       2.03290000       0.36440000
H       -0.24470000       1.79250000      -1.06650000
H       -0.97390000       1.84940000       0.54790000
H        1.31800000      -1.46740000      -0.71690000
H        2.14400000       0.13680000      -0.35020000
H        2.19750000       0.71240000       2.52300000
H        0.41050000       0.83730000       4.37280000
H       -0.86690000       0.46110000       3.12690000
H        1.34120000      -1.51050000       4.12910000
