11
Properties=species:S:1:pos:R:3 gdb_855=T pbc="F F F"
N        0.03120000       1.37830000       0.16420000
C       -0.03640000      -0.00260000       0.05270000
C       -1.10260000      -0.84030000       0.00240000
O       -0.58840000      -2.14490000      -0.02800000
C        0.73770000      -1.96220000       0.00290000
O        1.50880000      -3.04750000      -0.02220000
N        1.14790000      -0.73940000       0.04980000
H        0.91410000       1.73690000      -0.17350000
H       -0.74910000       1.86980000      -0.24750000
H       -2.17190000      -0.74500000      -0.00540000
H        0.93700000      -3.82400000      -0.05570000
