18
Properties=species:S:1:pos:R:3 gdb_107449=T pbc="F F F"
O        0.13090000       1.36110000       0.18070000
C        0.07640000      -0.02340000      -0.12650000
C       -1.33080000      -0.55160000      -0.15540000
N       -2.01410000      -0.95300000       1.10120000
C       -1.70670000      -1.97430000       0.08130000
C       -2.87160000      -2.35480000      -0.83470000
C       -3.20630000      -1.08270000      -1.61080000
O       -3.66590000       0.00890000      -0.81160000
C       -2.29270000      -0.00180000      -1.19830000
H       -0.38850000       1.50580000       0.97910000
H        0.54250000      -0.12100000      -1.11400000
H        0.67800000      -0.62330000       0.57720000
H       -1.31720000      -1.02600000       1.84260000
H       -0.96040000      -2.72710000       0.32010000
H       -2.55390000      -3.13670000      -1.53380000
H       -3.73360000      -2.73050000      -0.27520000
H       -3.65030000      -1.15060000      -2.60190000
H       -1.96990000       0.81150000      -1.84160000
