14
Properties=species:S:1:pos:R:3 gdb_50203=T pbc="F F F"
O       -0.22970000       0.10680000      -0.51700000
C       -0.03190000       1.18010000      -0.01530000
C        1.27210000       1.93530000      -0.08800000
O        2.40600000       1.17580000      -0.52560000
C        2.68140000       2.08740000      -1.61040000
C        1.41400000       2.92740000      -1.29450000
N        0.86400000       2.47560000      -2.56230000
C        1.93680000       1.65750000      -2.90960000
O        2.13180000       0.91980000      -3.82870000
H       -0.83310000       1.73730000       0.52550000
H        1.47160000       2.43110000       0.87300000
H        3.71200000       2.43900000      -1.64300000
H        1.37990000       3.99790000      -1.10230000
H       -0.09660000       2.42740000      -2.87470000
