16
Properties=species:S:1:pos:R:3 gdb_45458=T pbc="F F F"
O       -0.02570000      -0.01820000      -0.41720000
C       -0.06680000       1.13650000      -0.09360000
C       -1.28350000       2.01380000       0.18710000
N       -0.78500000       3.26640000       0.76560000
C       -0.51150000       3.27060000       2.23200000
C        0.91240000       3.81750000       1.96750000
C        0.67750000       3.42110000       0.48720000
C        1.19120000       2.04880000       0.09490000
O        2.32600000       1.68220000      -0.05000000
H       -1.80890000       2.20300000      -0.76000000
H       -1.99280000       1.51330000       0.85230000
H       -1.19780000       3.89960000       2.80580000
H       -0.50110000       2.26560000       2.67950000
H        0.99620000       4.89670000       2.09690000
H        1.74300000       3.32430000       2.47290000
H        0.93400000       4.16260000      -0.27860000
