21
Properties=species:S:1:pos:R:3 gdb_38751=T pbc="F F F"
C       -0.03390000       1.55740000      -0.09430000
C        1.51460000       1.56990000       0.00230000
C        2.06010000       1.72060000       1.43820000
C        1.91200000       0.31570000       2.05730000
C        2.32970000      -0.60390000       0.89750000
C        1.52320000       0.01600000      -0.24510000
C       -0.01740000       0.01200000       0.04970000
C       -0.29370000      -0.49460000       1.46310000
O        0.54950000       0.09140000       2.44900000
H       -0.58040000       2.11870000       0.66990000
H       -0.38850000       1.87200000      -1.07960000
H        2.03500000       2.20920000      -0.71310000
H        3.12130000       1.99560000       1.41580000
H        1.53030000       2.47480000       2.02690000
H        2.50940000       0.18840000       2.96460000
H        3.40750000      -0.51740000       0.72060000
H        2.10630000      -1.65860000       1.08360000
H        1.79590000      -0.31810000      -1.24690000
H       -0.64510000      -0.54050000      -0.65600000
H       -1.31860000      -0.25490000       1.76890000
H       -0.19830000      -1.59240000       1.48250000
