12
Properties=species:S:1:pos:R:3 gdb_131904=T pbc="F F F"
N        0.00910000       1.36450000       0.14910000
C       -0.01730000      -0.01030000       0.04640000
C       -1.07200000      -0.88680000       0.01090000
O       -0.55540000      -2.15620000      -0.02150000
C        0.76130000      -1.96320000      -0.00240000
N        1.15890000      -0.73280000       0.03580000
N        1.60120000      -3.14400000      -0.03190000
O        1.02730000      -4.22420000      -0.07080000
O        2.80660000      -2.95400000      -0.01610000
H        0.89160000       1.76260000      -0.13910000
H       -0.78140000       1.84670000      -0.25160000
H       -2.14380000      -0.80110000       0.00700000
