16
Properties=species:S:1:pos:R:3 gdb_69714=T pbc="F F F"
C       -0.14740000       1.49490000       0.05090000
C        0.14390000       0.03160000       0.01190000
O       -0.72130000      -0.87060000       0.70390000
C        0.68230000      -0.92950000       0.99170000
C        1.35930000      -1.78510000      -0.11230000
C        0.79860000      -0.78620000      -1.16670000
N        0.04090000      -1.89080000      -1.74520000
C        0.41180000      -2.82270000      -0.78020000
O        0.09060000      -3.96010000      -0.59060000
H        0.72390000       2.07230000      -0.27480000
H       -0.98260000       1.74150000      -0.61480000
H       -0.41590000       1.80580000       1.06390000
H        0.98260000      -0.81350000       2.02630000
H        2.41950000      -2.00320000      -0.01100000
H        1.43890000      -0.22550000      -1.84810000
H       -0.82540000      -1.86960000      -2.26600000
