18
Properties=species:S:1:pos:R:3 gdb_100386=T pbc="F F F"
C        0.12170000       1.56040000      -0.05320000
C        0.03440000       0.02590000       0.02400000
C        0.66950000      -0.49750000       1.33540000
O        2.00980000      -0.11280000       1.48560000
N       -1.35510000      -0.45200000      -0.00050000
C       -2.28980000      -0.14700000      -0.94240000
O       -2.11190000       0.55830000      -1.91340000
C        0.76540000      -0.57070000      -1.18700000
O        1.87220000      -1.05480000      -1.13610000
H        1.15530000       1.86550000       0.12150000
H       -0.22440000       1.92900000      -1.01930000
H       -0.50860000       1.99650000       0.72820000
H        0.11410000      -0.07810000       2.18240000
H        0.55280000      -1.59460000       1.36690000
H        2.48170000      -0.51950000       0.74470000
H       -1.62800000      -1.10690000       0.71770000
H       -3.26220000      -0.62890000      -0.71770000
H        0.20050000      -0.52120000      -2.13690000
