20
Properties=species:S:1:pos:R:3 gdb_73639=T pbc="F F F"
C       -0.17150000       1.48060000       0.09200000
C        0.01600000      -0.02400000      -0.04100000
C       -1.30820000      -0.82220000      -0.14860000
C       -1.02240000      -2.14410000       0.58560000
C       -0.00230000      -1.71830000       1.66350000
N        0.83680000      -0.67750000       1.05370000
C        1.85440000      -1.17740000       0.08420000
C        1.10260000      -0.45910000      -1.04150000
O        1.27360000      -0.29870000      -2.21400000
H        0.78880000       1.99170000       0.20260000
H       -0.67300000       1.87880000      -0.79620000
H       -0.78370000       1.71180000       0.96970000
H       -2.10270000      -0.26300000       0.35890000
H       -1.61610000      -0.95820000      -1.18860000
H       -1.92220000      -2.60080000       1.00590000
H       -0.57630000      -2.87520000      -0.09830000
H       -0.52440000      -1.28980000       2.52790000
H        0.61760000      -2.54010000       2.03340000
H        2.87050000      -0.81910000       0.28280000
H        1.89120000      -2.26860000      -0.04530000
