17
Properties=species:S:1:pos:R:3 gdb_6144=T pbc="F F F"
C       -0.41580000       1.54520000       0.00720000
C        0.08660000       0.11290000      -0.07240000
C       -0.97560000      -0.90550000       0.31320000
C        0.91510000      -0.24250000      -1.33720000
C        2.09200000      -0.43270000      -0.34990000
O        1.28150000      -0.05300000       0.77070000
C        2.61840000      -1.79840000      -0.23460000
N        3.02980000      -2.87580000      -0.15930000
H        0.37680000       2.25240000      -0.25250000
H       -1.25630000       1.69720000      -0.67830000
H       -0.75710000       1.77100000       1.02230000
H       -1.83060000      -0.84620000      -0.36890000
H       -0.57270000      -1.92130000       0.27870000
H       -1.33310000      -0.71360000       1.32960000
H        0.60250000      -1.13990000      -1.87050000
H        1.05790000       0.57610000      -2.04330000
H        2.93660000       0.25180000      -0.49230000
