18
Properties=species:S:1:pos:R:3 gdb_7855=T pbc="F F F"
C        0.09900000       1.24010000      -0.56050000
C       -0.25260000       0.04810000       0.30160000
C        0.65820000      -1.12580000       0.41720000
N        0.43420000      -0.24550000       1.56380000
C        1.53780000       0.59710000       2.00830000
C        2.21280000       0.06190000       3.28000000
N        1.46910000      -0.84180000       3.96430000
O        3.30660000       0.46290000       3.62810000
H        1.17810000       1.37070000      -0.67060000
H       -0.32470000       1.11040000      -1.56170000
H       -0.31560000       2.16480000      -0.14450000
H       -1.32280000      -0.14620000       0.36270000
H        0.26630000      -2.13580000       0.50290000
H        1.62150000      -1.05520000      -0.08660000
H        2.33600000       0.73710000       1.26780000
H        1.14830000       1.59230000       2.25540000
H        0.57610000      -1.12170000       3.59190000
H        1.82740000      -1.22620000       4.82170000
