23
Properties=species:S:1:pos:R:3 gdb_102376=T pbc="F F F"
C       -0.09770000       1.53430000       0.17050000
C        0.00530000       0.01860000      -0.01370000
C        0.73170000      -0.46240000      -1.30520000
C        0.74760000      -2.02010000      -1.29030000
C        1.44200000      -2.69310000      -2.47630000
C        0.01450000       0.06700000      -2.56760000
O       -1.31810000      -0.42290000      -2.55790000
C        2.10470000       0.05060000      -1.32600000
C        3.23160000       0.47180000      -1.34320000
H        0.88580000       2.01070000       0.11580000
H       -0.74240000       1.99290000      -0.58540000
H       -0.53040000       1.76670000       1.14860000
H        0.53600000      -0.41540000       0.84110000
H       -0.99750000      -0.41900000      -0.02480000
H        1.23390000      -2.33350000      -0.35980000
H       -0.29320000      -2.35340000      -1.23670000
H        0.90310000      -2.52290000      -3.41330000
H        2.46580000      -2.32720000      -2.59940000
H        1.48780000      -3.77570000      -2.32170000
H        0.03880000       1.16500000      -2.56330000
H        0.55940000      -0.26850000      -3.46020000
H       -1.76450000      -0.09640000      -3.34400000
H        4.22700000       0.84150000      -1.35480000
