15
Properties=species:S:1:pos:R:3 gdb_2586=T pbc="F F F"
C       -0.26980000       1.48550000      -0.05140000
C        0.18470000       0.02590000       0.05680000
C        0.79110000      -0.51360000      -1.23230000
C        0.62290000      -1.95490000      -1.58900000
N       -0.08740000      -0.92340000      -2.35030000
C        2.00650000       0.15960000      -1.65230000
N        2.98670000       0.70030000      -1.94090000
H        0.57150000       2.14020000      -0.29690000
H       -1.02910000       1.61010000      -0.83020000
H       -0.69830000       1.82540000       0.89540000
H        0.92000000      -0.07740000       0.86310000
H       -0.66250000      -0.61860000       0.32120000
H        1.40540000      -2.46970000      -2.13700000
H        0.07280000      -2.56880000      -0.88060000
H       -1.05650000      -0.85750000      -2.04580000
