21
Properties=species:S:1:pos:R:3 gdb_53673=T pbc="F F F"
C       -0.02000000       1.50780000       0.02370000
C       -0.00210000       0.05240000       0.06700000
C        0.02340000      -1.15090000       0.10550000
C        0.01790000      -2.60890000       0.14430000
C       -1.36900000      -3.21870000      -0.14940000
C       -1.36270000      -4.74030000      -0.09420000
C       -1.28670000      -5.41350000       1.29800000
O       -2.54230000      -6.09060000       1.09310000
C       -2.72730000      -5.46000000      -0.19010000
H        0.66760000       1.89330000      -0.73750000
H       -1.02020000       1.88740000      -0.21330000
H        0.27700000       1.93980000       0.98590000
H        0.74400000      -3.00180000      -0.58060000
H        0.36330000      -2.95210000       1.12920000
H       -2.09500000      -2.82470000       0.57220000
H       -1.70210000      -2.88490000      -1.13940000
H       -0.62420000      -5.14020000      -0.79590000
H       -0.46190000      -6.11840000       1.45820000
H       -1.32920000      -4.71980000       2.14980000
H       -3.60050000      -4.79290000      -0.19820000
H       -2.83590000      -6.19450000      -0.99740000
