19
Properties=species:S:1:pos:R:3 gdb_124506=T pbc="F F F"
C        0.19470000       1.49970000       0.10780000
C       -0.06070000      -0.01410000      -0.02090000
C       -1.56880000      -0.32290000      -0.08180000
C        0.67920000      -0.60880000      -1.18680000
C        1.67520000      -1.56690000      -1.23440000
C        1.96560000      -1.70520000      -2.60940000
O        2.88580000      -2.54020000      -3.13680000
N        1.22800000      -0.91290000      -3.37120000
N        0.44650000      -0.25010000      -2.47460000
H        1.26430000       1.71480000       0.17960000
H       -0.19840000       2.04550000      -0.75750000
H       -0.29860000       1.89830000       1.00000000
H        0.34530000      -0.50010000       0.87340000
H       -2.03690000       0.14560000      -0.95500000
H       -1.74910000      -1.39950000      -0.14440000
H       -2.07610000       0.06120000       0.80900000
H        2.12520000      -2.08790000      -0.40600000
H        2.86030000      -2.41630000      -4.09390000
H       -0.21380000       0.42380000      -2.81890000
