17
Properties=species:S:1:pos:R:3 gdb_15240=T pbc="F F F"
C        0.08350000       1.11430000       0.46720000
O       -0.12490000       0.04500000      -0.44480000
C       -1.32900000      -0.60110000      -0.27130000
C       -1.41920000      -2.01300000      -0.73900000
C       -0.23930000      -2.70240000      -1.38460000
C       -1.44150000      -1.72810000       0.77220000
C       -0.30280000      -2.05400000       1.57680000
N        0.60990000      -2.31430000       2.23990000
H        1.04510000       1.56230000       0.21110000
H       -0.70530000       1.87450000       0.37290000
H        0.11540000       0.75550000       1.50300000
H       -2.21020000       0.03760000      -0.35770000
H       -2.38990000      -2.30660000      -1.12850000
H        0.70500000      -2.35010000      -0.96740000
H       -0.29920000      -3.78530000      -1.24100000
H       -0.22900000      -2.50090000      -2.46030000
H       -2.39180000      -1.83620000       1.28450000
