14
Properties=species:S:1:pos:R:3 gdb_129248=T pbc="F F F"
N        0.00760000       1.32830000       0.01130000
C       -0.04560000       0.06730000       0.00390000
O        1.08370000      -0.75880000      -0.00740000
C        0.73680000      -2.15480000      -0.01410000
C       -0.75540000      -2.11270000      -0.00560000
C       -1.20170000      -0.81690000       0.00480000
C       -2.61120000      -0.91430000       0.01200000
N       -2.99270000      -2.18770000       0.00630000
N       -1.83570000      -2.91130000      -0.00450000
H        0.97700000       1.64830000       0.00800000
H        1.16310000      -2.62530000      -0.90880000
H        1.17280000      -2.63620000       0.87010000
H       -3.35440000      -0.13230000       0.02090000
H       -1.89670000      -3.91520000      -0.01040000
