12
Properties=species:S:1:pos:R:3 gdb_18414=T pbc="F F F"
N       -0.06050000       1.20910000       0.00560000
C       -0.06420000      -0.03680000       0.05400000
O        0.99060000      -0.95710000       0.17590000
C        0.06890000      -2.04170000      -0.03460000
C       -0.92790000      -2.10480000       1.08610000
C       -0.61360000      -1.70700000       2.43310000
N       -0.37010000      -1.40330000       3.52120000
C       -1.10790000      -1.10320000      -0.07420000
H        0.88080000       1.59250000       0.10080000
H        0.38240000      -2.86570000      -0.66010000
H       -1.62170000      -2.93870000       1.01750000
H       -2.00800000      -1.07580000      -0.66970000
