18
Properties=species:S:1:pos:R:3 gdb_56360=T pbc="F F F"
C       -0.06090000       1.47050000      -0.08730000
C        0.00590000      -0.07680000       0.05280000
C        0.72600000      -0.42980000       1.28550000
C        1.34900000      -0.69730000       2.27700000
C       -1.36140000      -0.61500000       0.09900000
C       -2.48940000      -1.03030000       0.10160000
C        0.78560000      -0.65170000      -1.15170000
C        0.59980000      -2.04080000      -1.61840000
N        0.12830000      -0.90180000      -2.43520000
H        0.95190000       1.88060000      -0.10760000
H       -0.57170000       1.73550000      -1.01630000
H       -0.60080000       1.90770000       0.75470000
H        1.88870000      -0.94420000       3.15780000
H       -3.48450000      -1.40150000       0.12970000
H        1.77060000      -0.19840000      -1.23730000
H        1.44070000      -2.58850000      -2.03310000
H       -0.14410000      -2.64820000      -1.11130000
H       -0.88090000      -0.81680000      -2.32000000
