16
Properties=species:S:1:pos:R:3 gdb_50021=T pbc="F F F"
O        0.01780000      -0.00580000      -0.41310000
C        0.06750000       1.11360000       0.03100000
C        1.28670000       1.95710000       0.02860000
C        1.12110000       3.46460000      -0.06240000
C        1.53230000       2.86660000       1.23580000
N        0.80080000       2.82860000       2.51220000
C        2.07080000       3.01130000       3.28780000
C        2.85120000       2.98080000       1.95820000
O        3.99800000       3.02140000       1.62800000
H       -0.82600000       1.59920000       0.48360000
H        2.16690000       1.50910000      -0.41990000
H        1.85990000       4.02010000      -0.62940000
H        0.10480000       3.84400000      -0.13040000
H        0.17610000       3.62100000       2.61890000
H        2.16120000       3.96040000       3.82760000
H        2.28670000       2.18630000       3.97340000
