14
Properties=species:S:1:pos:R:3 gdb_133199=T pbc="F F F"
C       -0.03160000       1.53370000       0.01390000
C       -0.00820000       0.03460000      -0.01570000
N       -0.04050000      -0.57890000      -1.16550000
N       -0.01840000      -1.91590000      -1.15870000
C        0.03620000      -2.79360000      -0.06330000
O        0.04970000      -3.99840000      -0.23230000
C        0.07120000      -2.08160000       1.20270000
C        0.04900000      -0.73160000       1.19740000
F        0.07960000      -0.03970000       2.33450000
H        0.86090000       1.93290000       0.50730000
H       -0.07540000       1.91480000      -1.00690000
H       -0.89790000       1.90420000       0.57210000
H       -0.04500000      -2.34870000      -2.07250000
H        0.11430000      -2.65500000       2.11910000
