15
Properties=species:S:1:pos:R:3 gdb_49333=T pbc="F F F"
N       -0.09450000       1.25870000       0.06840000
C        0.01030000       0.00000000       0.02410000
C       -1.20220000      -0.91100000      -0.01670000
N       -0.62020000      -2.22870000       0.15540000
C        0.75850000      -2.22540000      -0.01020000
N        1.57880000      -3.17980000      -0.13290000
N        1.14410000      -0.84960000       0.00070000
C        2.45730000      -0.36790000       0.00750000
O        3.45830000      -1.02430000       0.03800000
H        0.79420000       1.75430000       0.08810000
H       -1.89960000      -0.64760000       0.78360000
H       -1.72230000      -0.78820000      -0.97610000
H       -1.11620000      -3.04030000      -0.17490000
H        1.09520000      -4.07670000      -0.10870000
H        2.46470000       0.73650000      -0.02130000
