25
Properties=species:S:1:pos:R:3 gdb_95830=T pbc="F F F"
C        0.11270000       1.65260000       0.00290000
C        0.01620000       0.12050000      -0.01230000
C        0.53430000      -0.45950000      -1.34150000
C       -0.03370000      -1.84040000      -1.69230000
O        0.43900000      -2.92070000      -0.91730000
C        0.11700000      -2.89860000       0.47170000
C        0.24300000      -4.34120000       0.95390000
C        1.06470000      -1.95790000       1.23710000
C        0.71020000      -0.45600000       1.24200000
H        1.15120000       1.97970000      -0.12840000
H       -0.48180000       2.09790000      -0.80170000
H       -0.24540000       2.06470000       0.95250000
H       -1.05120000      -0.13730000       0.04700000
H        0.24320000       0.21570000      -2.15750000
H        1.63140000      -0.49890000      -1.34960000
H       -1.13660000      -1.79240000      -1.64320000
H        0.23460000      -2.09480000      -2.72340000
H       -0.92940000      -2.57170000       0.59720000
H        1.27880000      -4.68350000       0.85970000
H       -0.05580000      -4.42830000       2.00270000
H       -0.38910000      -4.99890000       0.35180000
H        1.14030000      -2.29470000       2.27760000
H        2.05550000      -2.11280000       0.79450000
H        1.63510000       0.10830000       1.42100000
H        0.06570000      -0.23870000       2.10310000
