18
Properties=species:S:1:pos:R:3 gdb_66943=T pbc="F F F"
C        0.03530000       1.49040000       0.06500000
C       -0.08440000       0.00570000      -0.05960000
C       -0.96400000      -0.86490000       0.78620000
C       -1.07060000      -2.24900000       0.16390000
C        0.40240000      -2.00960000      -0.22050000
N        0.52870000      -0.95890000       0.94030000
C        0.37050000      -0.85440000      -1.20780000
C        0.26580000      -0.75900000      -2.66130000
O        1.50420000      -0.48880000      -1.97150000
H        1.00000000       1.82470000      -0.32770000
H       -0.75930000       1.99890000      -0.49250000
H       -0.03570000       1.79460000       1.11310000
H       -1.57950000      -0.44190000       1.57360000
H       -1.16560000      -3.01470000       0.93800000
H       -1.79440000      -2.43410000      -0.63670000
H        1.13420000      -2.80910000      -0.31190000
H        0.26250000      -1.66280000      -3.26950000
H       -0.20780000       0.10850000      -3.11920000
