18
Properties=species:S:1:pos:R:3 gdb_53309=T pbc="F F F"
C        0.19800000       1.55810000       0.10750000
C        0.12320000       0.10530000       0.06280000
C        0.06580000      -1.09840000       0.03810000
C        0.01340000      -2.53260000      -0.04420000
C       -0.48150000      -3.34620000       1.11560000
N       -1.27090000      -3.25890000      -0.10440000
C       -2.50060000      -2.48360000      -0.04900000
C       -3.68560000      -3.41020000       0.17030000
O       -4.71500000      -3.07330000       0.69370000
H        1.22570000       1.89330000       0.28560000
H       -0.13870000       2.00570000      -0.83410000
H       -0.42640000       1.96310000       0.91120000
H        0.77390000      -2.97900000      -0.68140000
H       -0.03350000      -4.31320000       1.32670000
H       -0.82220000      -2.79080000       1.98730000
H       -2.51700000      -1.68910000       0.70990000
H       -2.64780000      -1.99990000      -1.02540000
H       -3.52820000      -4.44100000      -0.21780000
