23
Properties=species:S:1:pos:R:3 gdb_118665=T pbc="F F F"
C       -0.03540000       1.61800000       0.05220000
C        0.01140000       0.08790000       0.03630000
C       -1.38370000      -0.54700000      -0.00790000
C       -1.37400000      -2.09010000      -0.00990000
C       -2.80120000      -2.65640000       0.12050000
C       -2.84430000      -4.17000000       0.29960000
O       -4.20690000      -4.54400000       0.42670000
C       -0.75080000      -2.58890000      -1.29950000
O        0.23570000      -3.27310000      -1.39030000
H        0.97070000       2.04600000       0.09190000
H       -0.52880000       2.00940000      -0.84440000
H       -0.59000000       1.98830000       0.92170000
H        0.60250000      -0.25250000      -0.82330000
H        0.54230000      -0.27450000       0.92600000
H       -1.96820000      -0.20760000       0.85630000
H       -1.92500000      -0.18960000      -0.89580000
H       -0.75010000      -2.45520000       0.81490000
H       -3.29810000      -2.18990000       0.97820000
H       -3.39410000      -2.38940000      -0.76390000
H       -2.37140000      -4.66970000      -0.56080000
H       -2.26480000      -4.45270000       1.19350000
H       -4.24880000      -5.49950000       0.52630000
H       -1.30500000      -2.25850000      -2.21320000
