16
Properties=species:S:1:pos:R:3 gdb_96745=T pbc="F F F"
C       -0.02010000       1.45710000       0.12540000
N        0.01930000       0.01150000       0.06570000
C        0.52530000      -0.58660000      -0.93090000
O        0.57040000      -1.93760000      -1.00410000
C        0.00730000      -2.63040000       0.12170000
C        0.13080000      -4.06060000      -0.10630000
C        0.21480000      -5.24840000      -0.25860000
C        1.11160000       0.00840000      -2.10220000
C        1.59420000       0.53910000      -3.06680000
H        0.50930000       1.79230000       1.02470000
H        0.41680000       1.95870000      -0.74710000
H       -1.06120000       1.78230000       0.23260000
H        0.52850000      -2.32560000       1.03650000
H       -1.04100000      -2.33510000       0.24570000
H        0.29120000      -6.29840000      -0.39780000
H        2.02340000       0.99770000      -3.92400000
