17
Properties=species:S:1:pos:R:3 gdb_127264=T pbc="F F F"
C       -0.08880000       1.43860000       0.07710000
N        0.02210000       0.00180000      -0.07410000
C        0.00090000      -0.74620000      -1.20550000
C        0.14130000      -2.04310000      -0.76590000
N        0.23240000      -2.01390000       0.59600000
N        0.16090000      -0.78140000       1.01020000
C        0.18040000      -3.31030000      -1.51790000
C        1.08350000      -4.40730000      -1.06640000
N       -0.36790000      -4.53100000      -0.89410000
H        0.72780000       1.94560000      -0.44410000
H       -1.04490000       1.79510000      -0.31600000
H       -0.03030000       1.65520000       1.14340000
H       -0.10820000      -0.31250000      -2.18520000
H       -0.03690000      -3.21890000      -2.57880000
H        1.52020000      -5.07880000      -1.80080000
H        1.69390000      -4.20810000      -0.19050000
H       -0.60210000      -4.30620000       0.07190000
