19
Properties=species:S:1:pos:R:3 gdb_70792=T pbc="F F F"
C       -0.10420000       1.47310000       0.05200000
C        0.08650000      -0.01600000       0.05330000
C        0.96800000      -0.78210000      -0.97250000
C        0.82600000      -1.90100000       0.06470000
O        1.50120000      -3.10940000       0.07990000
C       -0.71220000      -1.98790000       0.43820000
C       -0.35340000      -1.65670000       1.90500000
C        0.76290000      -0.84210000       1.23690000
O       -1.16610000      -0.72630000      -0.06550000
H        0.85920000       1.98710000       0.11450000
H       -0.60570000       1.79190000      -0.86770000
H       -0.72080000       1.78360000       0.90090000
H        0.56510000      -0.90730000      -1.98090000
H        1.99440000      -0.40030000      -1.00170000
H        2.44760000      -2.93350000       0.05100000
H       -1.36010000      -2.80670000       0.12980000
H       -1.12160000      -1.15540000       2.49840000
H        0.05950000      -2.51690000       2.43740000
H        1.63020000      -0.41580000       1.74000000
