15
Properties=species:S:1:pos:R:3 gdb_50192=T pbc="F F F"
N       -0.20940000       1.06930000      -0.76940000
C       -0.09570000      -0.01200000      -0.15570000
O        1.02800000      -0.62110000       0.41240000
C        0.27060000      -1.80590000       0.76440000
C       -0.37340000      -1.73090000       2.18040000
N       -1.51750000      -0.96400000       1.64020000
C       -1.02770000      -1.14420000       0.24420000
C       -0.72870000      -3.09560000       2.72190000
O       -1.84550000      -3.54810000       2.70550000
H        0.67740000       1.57330000      -0.82290000
H        0.75050000      -2.71960000       0.41680000
H        0.23960000      -1.19810000       2.91900000
H       -2.38290000      -1.47070000       1.80810000
H       -1.72160000      -1.54670000      -0.49120000
H        0.12830000      -3.67150000       3.13510000
