14
Properties=species:S:1:pos:R:3 gdb_130282=T pbc="F F F"
N       -0.02080000       1.35590000       0.20300000
C        0.03180000      -0.01370000       0.04070000
N       -1.07740000      -0.71820000      -0.07080000
O       -0.63780000      -2.07010000      -0.13320000
C        0.69380000      -2.07710000      -0.06270000
O        1.34560000      -3.24610000      -0.12970000
C        0.65920000      -4.42290000       0.05820000
N        1.28930000      -5.49590000      -0.10840000
C        1.20570000      -0.82550000       0.04570000
H        0.73820000       1.86040000      -0.23060000
H       -0.92300000       1.75020000      -0.02760000
H       -0.38180000      -4.27720000       0.34720000
H        0.67900000      -6.28990000       0.07610000
H        2.23740000      -0.53640000       0.14020000
