16
Properties=species:S:1:pos:R:3 gdb_52138=T pbc="F F F"
O        0.57980000       0.11300000       0.28770000
C        0.79260000       1.26480000       0.50580000
O        0.47390000       2.23670000      -0.38290000
C        0.80710000       3.56610000      -0.02340000
C        2.27740000       3.85120000      -0.15490000
N        3.20250000       2.99290000      -0.25090000
C        4.46090000       3.75300000      -0.33260000
C        4.02990000       5.23990000      -0.22200000
O        2.58320000       5.17350000      -0.13520000
H        1.23730000       1.66130000       1.43650000
H        0.24740000       4.22150000      -0.69430000
H        0.48640000       3.79830000       1.00180000
H        5.13250000       3.44900000       0.47610000
H        4.96610000       3.52990000      -1.27760000
H        4.40130000       5.73900000       0.67700000
H        4.28900000       5.84130000      -1.09660000
