14
Properties=species:S:1:pos:R:3 gdb_80693=T pbc="F F F"
O       -0.06280000       1.44600000       0.26990000
C       -0.04740000       0.06690000       0.14040000
C       -0.48070000      -0.75510000       1.31270000
O       -1.27760000      -0.08290000       2.26250000
C       -2.39190000       0.32780000       1.59190000
C       -3.34120000       1.13580000       2.41140000
O       -4.37310000       1.58460000       1.98940000
N       -2.53690000      -0.04180000       0.37770000
C       -1.33850000      -0.73970000       0.02400000
H       -0.51250000       1.82050000      -0.49620000
H        0.78550000      -0.35410000      -0.42230000
H        0.09790000      -1.56800000       1.73120000
H       -3.00260000       1.27910000       3.45730000
H       -1.42000000      -1.53740000      -0.70400000
