18
Properties=species:S:1:pos:R:3 gdb_44483=T pbc="F F F"
O        0.02390000       0.04510000      -0.20160000
C       -0.02700000       1.22870000      -0.01010000
C       -1.28970000       2.09860000       0.16230000
C       -0.68300000       3.44750000       0.51540000
C        0.16050000       4.24660000      -0.53930000
C        1.08380000       4.51630000       0.66850000
N        0.67050000       3.15430000       1.16930000
C        1.11930000       2.22730000       0.07470000
C        0.95000000       3.11770000      -1.22080000
H       -1.89560000       2.08930000      -0.74850000
H       -1.90500000       1.70050000       0.97470000
H       -1.29320000       4.08530000       1.15610000
H       -0.25490000       5.03420000      -1.16990000
H        2.15540000       4.64990000       0.49350000
H        0.71680000       5.28010000       1.35820000
H        2.10260000       1.79300000       0.24070000
H        0.40720000       2.60900000      -2.02240000
H        1.90780000       3.45600000      -1.62340000
