16
Properties=species:S:1:pos:R:3 gdb_128051=T pbc="F F F"
C        0.07000000       1.36420000       0.09820000
N       -0.08300000      -0.07440000       0.06270000
C       -1.31520000      -0.65360000       0.04400000
N       -2.38190000       0.06160000      -0.00720000
C       -1.29710000      -2.13390000       0.07800000
C       -2.28080000      -3.07770000       0.06000000
C       -1.56920000      -4.30180000       0.12320000
N       -0.27130000      -4.12300000       0.17600000
O       -0.09610000      -2.74470000       0.14680000
H        1.13390000       1.60590000       0.06020000
H       -0.43490000       1.82300000      -0.75730000
H       -0.36710000       1.79560000       1.00680000
H        0.71830000      -0.66340000       0.20200000
H       -3.21300000      -0.52320000      -0.03820000
H       -3.34610000      -2.93080000       0.01020000
H       -1.95850000      -5.31000000       0.13240000
