18
Properties=species:S:1:pos:R:3 gdb_125868=T pbc="F F F"
C       -0.59920000       1.36570000       0.26200000
C       -0.15870000      -0.07500000       0.14070000
C        1.17480000      -0.42580000      -0.45900000
C        0.95160000      -0.64870000       1.01950000
C        1.65880000       0.17730000       2.01480000
C        2.78880000       0.96640000       1.98280000
N        3.00130000       1.50500000       3.21640000
N        2.06910000       1.09510000       4.02560000
N        1.25410000       0.29620000       3.30770000
H        0.24350000       2.02030000       0.50120000
H       -1.04120000       1.71540000      -0.67680000
H       -1.35010000       1.48930000       1.05020000
H       -0.96330000      -0.77620000      -0.06440000
H        1.25900000      -1.29880000      -1.09580000
H        1.82080000       0.39780000      -0.74470000
H        0.80750000      -1.68260000       1.32360000
H        3.45370000       1.16360000       1.15780000
H        0.45450000      -0.12310000       3.75550000
