15
Properties=species:S:1:pos:R:3 gdb_124016=T pbc="F F F"
C        0.12440000       1.54070000      -0.14650000
N        1.51690000       1.49690000       0.37030000
C        1.50320000       0.01910000       0.49330000
C       -0.02080000       0.01390000       0.07270000
N        0.41990000      -0.78270000      -1.08940000
N        0.14520000      -1.22070000      -2.32930000
N        1.31780000      -1.54840000      -2.82480000
C        2.32960000      -1.26880000      -1.94150000
C        1.73580000      -0.76970000      -0.80210000
H       -0.52930000       2.14140000       0.49320000
H       -0.00450000       1.85330000      -1.18710000
H        2.22690000       1.86190000      -0.25440000
H        1.89970000      -0.37810000       1.42700000
H       -0.84960000      -0.39320000       0.64600000
H        3.35710000      -1.46840000      -2.19420000
