17
Properties=species:S:1:pos:R:3 gdb_49202=T pbc="F F F"
O        0.00790000      -0.03130000      -0.24400000
C        0.09480000       1.17000000      -0.35580000
C        1.31550000       1.96150000      -0.07800000
C        1.18230000       3.32320000      -0.10690000
C        2.16750000       4.28850000       0.29820000
C        3.50310000       4.11310000       0.23730000
C        4.13480000       2.93350000      -0.45480000
C        3.75490000       1.67670000       0.29180000
C        2.48790000       1.23900000       0.37330000
H       -0.77800000       1.78080000      -0.68150000
H        0.19090000       3.70890000      -0.34290000
H        1.78420000       5.22350000       0.70050000
H        4.15650000       4.86140000       0.67790000
H        3.76950000       2.87350000      -1.48910000
H        5.22010000       3.04610000      -0.49810000
H        4.54970000       1.10100000       0.75770000
H        2.28290000       0.26640000       0.81140000
