16
Properties=species:S:1:pos:R:3 gdb_126492=T pbc="F F F"
C       -0.09750000       1.53260000      -0.00240000
C       -0.02710000       0.00990000       0.09410000
C        0.77600000      -0.52690000       1.24650000
N        1.32970000       0.31670000       2.04730000
O        2.07790000      -0.15030000       3.12140000
N        2.25960000      -1.48670000       3.37610000
C        1.70920000      -2.33030000       2.58010000
C        0.90230000      -1.97970000       1.42110000
N        0.33660000      -2.78940000       0.60320000
H        0.89720000       1.97200000      -0.11360000
H       -0.70020000       1.82090000      -0.86790000
H       -0.54870000       1.96910000       0.89230000
H       -1.02930000      -0.43090000       0.16790000
H        0.39140000      -0.42810000      -0.82090000
H        1.88470000      -3.37560000       2.82740000
H        0.52360000      -3.76030000       0.86750000
