19
Properties=species:S:1:pos:R:3 gdb_106529=T pbc="F F F"
O        0.00480000       1.39880000      -0.24640000
C        0.04700000       0.02210000       0.08640000
C       -1.34530000      -0.56710000       0.15210000
C       -1.58320000      -2.09310000       0.11970000
C       -2.74570000      -1.66540000      -0.79810000
C       -3.94510000      -1.22990000       0.03500000
O       -3.50700000      -0.65600000       1.26140000
C       -2.28740000       0.07990000       1.16970000
O       -2.02090000      -0.44790000      -1.14990000
H       -0.48110000       1.46300000      -1.07740000
H        0.63970000      -0.55150000      -0.64260000
H        0.54190000      -0.05450000       1.06090000
H       -0.79710000      -2.61760000      -0.42570000
H       -1.82250000      -2.59810000       1.05600000
H       -3.01400000      -2.26440000      -1.67200000
H       -4.53850000      -0.51310000      -0.55320000
H       -4.58320000      -2.07940000       0.30350000
H       -1.85570000       0.07430000       2.17660000
H       -2.46750000       1.12010000       0.86890000
