15
Properties=species:S:1:pos:R:3 gdb_45634=T pbc="F F F"
O       -0.04870000      -0.00340000      -0.08910000
C       -0.04060000       1.20130000      -0.03530000
C       -1.22240000       2.18330000      -0.13590000
C       -0.57820000       3.53910000       0.02000000
C       -1.30940000       4.84920000       0.01020000
C       -2.01160000       5.09670000      -1.25610000
N       -2.56490000       5.26860000      -2.25570000
C        0.74030000       3.36000000       0.16780000
N        1.07920000       2.00380000       0.13930000
H       -1.73010000       2.05080000      -1.09840000
H       -1.95880000       1.95110000       0.64260000
H       -2.05570000       4.89420000       0.81570000
H       -0.61070000       5.67470000       0.18640000
H        1.51520000       4.10310000       0.29680000
H        2.00690000       1.62700000       0.23990000
