16
Properties=species:S:1:pos:R:3 gdb_27476=T pbc="F F F"
C        0.00690000       1.49500000      -0.00850000
C       -0.06160000      -0.00150000      -0.00520000
C       -1.19700000      -0.71680000      -0.11230000
C       -1.18090000      -2.17000000      -0.10140000
N       -2.25500000      -2.85840000      -0.20280000
N        0.11190000      -2.71510000       0.02960000
C        1.30720000      -2.03150000       0.14270000
O        2.38520000      -2.57540000       0.25260000
N        1.15560000      -0.65390000       0.11840000
H        0.62650000       1.85620000      -0.83790000
H       -0.98950000       1.92640000      -0.10920000
H        0.45370000       1.86760000       0.92090000
H       -2.15890000      -0.23560000      -0.21010000
H       -2.06570000      -3.86160000      -0.17760000
H        0.21430000      -3.71960000       0.04670000
H        2.01550000      -0.13480000       0.19900000
