16
Properties=species:S:1:pos:R:3 gdb_71457=T pbc="F F F"
O       -0.16190000       1.42180000      -0.02730000
C       -0.04160000       0.04990000      -0.03700000
C        0.62500000      -0.77490000      -1.13320000
N       -0.36750000      -1.90340000      -0.83970000
C       -1.15380000      -0.95620000       0.00570000
C       -0.27820000      -0.79880000       1.22460000
C        0.47610000      -2.09020000       1.44310000
C        0.33830000      -2.79240000       0.07530000
O        0.78990000      -3.85400000      -0.23580000
H        0.57260000       1.79440000       0.47290000
H        0.43460000      -0.37350000      -2.13120000
H        1.68280000      -1.04840000      -1.04200000
H       -2.23070000      -0.88650000      -0.06400000
H       -0.67540000      -0.23300000       2.05970000
H        1.54070000      -1.98820000       1.67810000
H        0.02860000      -2.70030000       2.23530000
