20
Properties=species:S:1:pos:R:3 gdb_60647=T pbc="F F F"
C       -0.00910000       1.47020000      -0.13730000
C        0.07300000      -0.06180000      -0.09220000
N        0.82200000      -0.52360000       1.06980000
H       -0.95770000      -0.75820000       1.78690000
C        2.16780000       0.02580000       1.37530000
C        2.60090000      -1.38330000       1.84430000
C        1.37540000      -1.90480000       1.06010000
C       -1.36180000      -0.61910000      -0.01910000
O       -2.08160000      -0.72840000      -0.97350000
O       -1.74880000      -0.92620000       1.23120000
H        0.98330000       1.91330000      -0.25650000
H       -0.62730000       1.77560000      -0.98410000
H       -0.45670000       1.86220000       0.78130000
H        0.50930000      -0.42550000      -1.03650000
H        2.71200000       0.34100000       0.47310000
H        2.17680000       0.84430000       2.10000000
H        3.58220000      -1.73290000       1.52520000
H        2.49850000      -1.51740000       2.92240000
H        0.73560000      -2.65930000       1.52630000
H        1.63870000      -2.24020000       0.04570000
