15
Properties=species:S:1:pos:R:3 gdb_8253=T pbc="F F F"
O       -0.05060000      -0.02350000      -0.07070000
C       -0.04370000       1.16030000       0.07230000
C       -1.11830000       2.25420000       0.18000000
N       -0.04660000       3.18060000       0.61580000
C       -0.03320000       4.50050000       0.00260000
C        1.11910000       5.28940000       0.42770000
C        2.07940000       5.93020000       0.75930000
C        1.03690000       2.23740000       0.24460000
H       -1.54990000       2.48530000      -0.80890000
H       -1.93100000       2.10240000       0.89740000
H       -0.03790000       4.44240000      -1.10550000
H       -0.95740000       5.01820000       0.28850000
H        2.92290000       6.50140000       1.05950000
H        1.80110000       2.07560000       1.01020000
H        1.53370000       2.46410000      -0.71320000
