13
Properties=species:S:1:pos:R:3 gdb_77856=T pbc="F F F"
O        0.16680000       1.43170000       0.25300000
C        0.03650000       0.07080000       0.03160000
C       -1.32480000      -0.64920000       0.00040000
C       -2.08700000      -0.38590000      -1.23980000
C       -1.98190000       0.88100000      -1.92800000
N       -1.88870000       1.91000000      -2.44910000
N       -0.97610000      -1.39200000      -1.28490000
C        0.26100000      -0.58490000      -1.36400000
O        1.09180000      -0.57880000      -2.20670000
H       -0.24630000       1.91870000      -0.47120000
H        0.69130000      -0.43600000       0.74990000
H       -1.77960000      -1.17750000       0.82920000
H       -3.06070000      -0.85610000      -1.33630000
