14
Properties=species:S:1:pos:R:3 gdb_397=T pbc="F F F"
O        0.05340000       1.38550000      -0.04840000
C        0.09070000      -0.02430000       0.00100000
C       -1.31430000      -0.60970000       0.10840000
O       -2.12760000      -0.11120000      -0.97090000
C       -1.37050000      -2.13440000       0.12730000
O       -2.70280000      -2.59510000       0.19020000
H       -0.69850000       1.60930000      -0.61130000
H        0.59190000      -0.44610000      -0.89070000
H        0.68930000      -0.30840000       0.87350000
H       -1.79980000      -0.21960000       1.00950000
H       -1.73890000      -0.42970000      -1.79650000
H       -0.84940000      -2.52740000      -0.76610000
H       -0.84470000      -2.52400000       1.00600000
H       -3.20910000      -2.01640000      -0.39390000
