19
Properties=species:S:1:pos:R:3 gdb_93889=T pbc="F F F"
O       -0.30770000       1.47710000       0.67990000
C       -0.06130000       0.18300000       0.13610000
C        0.74910000      -0.69090000       1.10590000
C       -0.27390000      -1.02960000       2.20010000
C       -1.61230000      -1.23180000       1.44490000
O       -2.72640000      -0.64380000       2.10420000
C       -1.41730000      -0.55420000       0.05070000
C       -2.56530000       0.34960000      -0.37300000
O       -3.15230000       0.21440000      -1.41760000
H        0.53590000       1.93230000       0.76310000
H        0.40660000       0.26750000      -0.85370000
H        1.08780000      -1.59580000       0.58670000
H        1.64050000      -0.17840000       1.48330000
H        0.00910000      -1.89420000       2.80680000
H       -0.40180000      -0.16850000       2.86230000
H       -1.80530000      -2.30180000       1.28570000
H       -2.87630000      -1.12240000       2.92480000
H       -1.33330000      -1.32740000      -0.71710000
H       -2.81870000       1.15440000       0.33720000
