21
Properties=species:S:1:pos:R:3 gdb_89230=T pbc="F F F"
C        0.01360000       1.53080000      -0.04000000
C        0.04100000       0.01740000      -0.00050000
C        0.46480000      -0.68910000      -1.29470000
C        0.39350000      -2.17410000      -0.85310000
O        1.65240000      -2.83580000      -0.81860000
C       -0.09230000      -1.98800000       0.57410000
C        0.65640000      -0.77390000       1.21320000
C       -0.61260000      -0.48140000       2.05030000
C       -1.13080000      -0.82490000       0.63260000
H        1.00880000       1.92840000      -0.27040000
H       -0.66710000       1.88570000      -0.82280000
H       -0.30940000       1.97510000       0.90530000
H       -0.21010000      -0.45480000      -2.12620000
H        1.48310000      -0.42240000      -1.59910000
H       -0.32280000      -2.75150000      -1.45640000
H        1.96550000      -2.92650000      -1.72370000
H       -0.25960000      -2.88100000       1.17780000
H        1.69700000      -0.75760000       1.54120000
H       -0.84780000      -1.20260000       2.83800000
H       -0.76140000       0.53870000       2.41090000
H       -2.16750000      -0.85900000       0.28760000
