19
Properties=species:S:1:pos:R:3 gdb_115370=T pbc="F F F"
C        0.69550000       0.96370000       0.39350000
O        0.63490000      -0.40940000       0.02960000
C        0.54730000      -0.62030000      -1.38060000
O        1.70200000      -0.16670000      -2.03440000
C        2.81120000      -1.06730000      -2.15380000
C        2.68920000      -2.35680000      -1.33520000
O        2.97120000      -2.16210000       0.04510000
C        1.30630000      -2.93350000      -1.54740000
C        0.27780000      -2.09080000      -1.57150000
H        1.56720000       1.45670000      -0.04960000
H       -0.21360000       1.49320000       0.07430000
H        0.76550000       1.00090000       1.48230000
H       -0.26540000       0.00630000      -1.77270000
H        2.91820000      -1.32760000      -3.21560000
H        3.70710000      -0.52420000      -1.83500000
H        3.45980000      -3.04640000      -1.69480000
H        2.24500000      -1.62450000       0.39640000
H        1.17770000      -4.00760000      -1.63330000
H       -0.75390000      -2.41040000      -1.66850000
