20
Properties=species:S:1:pos:R:3 gdb_119023=T pbc="F F F"
C       -0.01080000       1.64420000       1.34760000
O       -0.00330000       0.24430000       1.50470000
C        0.66480000      -0.42840000       0.45940000
C        0.55750000      -1.92670000       0.67970000
C        1.17200000      -2.77530000      -0.43160000
C        0.61640000      -2.50940000      -1.75580000
C        0.16040000      -2.27840000      -2.84370000
C        0.55990000      -2.45010000       2.06660000
N       -0.67870000      -2.46170000       1.25730000
H       -0.50570000       1.94500000       0.41160000
H       -0.56190000       2.06430000       2.19220000
H        1.00930000       2.05790000       1.34610000
H        0.21650000      -0.16740000      -0.51250000
H        1.72690000      -0.12930000       0.42120000
H        2.25870000      -2.61450000      -0.45310000
H        1.01350000      -3.82810000      -0.17500000
H       -0.24620000      -2.08790000      -3.80590000
H        0.98000000      -3.43080000       2.27560000
H        0.63510000      -1.73000000       2.87460000
H       -1.25710000      -1.67720000       1.55170000
