22
Properties=species:S:1:pos:R:3 gdb_88438=T pbc="F F F"
C       -1.71620000      -0.46850000       2.27480000
C       -0.79070000      -0.71370000       1.11300000
O       -0.42360000       0.41380000       0.30870000
C        0.61840000      -0.28920000       1.00060000
C        1.44090000       0.49720000       1.98680000
C        2.04840000       1.74260000       1.36770000
N        0.98910000       0.56030000       3.38960000
C        2.20170000      -0.21140000       3.05690000
C        2.14890000      -1.70260000       3.29020000
H       -1.40200000       0.39270000       2.86090000
H       -2.73390000      -0.31090000       1.90060000
H       -1.73360000      -1.34190000       2.93560000
H       -1.05620000      -1.58960000       0.51370000
H        1.24520000      -0.87900000       0.32440000
H        1.25830000       2.42750000       1.04510000
H        2.69670000       2.26110000       2.08170000
H        2.64910000       1.49310000       0.48580000
H        1.23760000       1.46270000       3.78830000
H        3.15460000       0.24820000       3.31980000
H        1.17500000      -2.10960000       3.00980000
H        2.92140000      -2.21730000       2.70840000
H        2.31720000      -1.93130000       4.34800000
