20
Properties=species:S:1:pos:R:3 gdb_119478=T pbc="F F F"
O        0.07990000       1.47110000       0.15860000
C        0.04040000       0.05320000       0.17530000
C       -1.33450000      -0.50480000      -0.21220000
C       -1.35770000      -2.00550000      -0.24000000
C       -0.71890000      -2.91220000      -1.30840000
C       -1.91230000      -3.91300000      -1.10390000
O       -1.62430000      -5.19830000      -0.59430000
C       -2.48960000      -2.98010000      -0.04060000
N       -1.51070000      -2.73850000       1.01430000
H       -0.52290000       1.78740000       0.83920000
H        0.79590000      -0.27000000      -0.54960000
H        0.33550000      -0.34970000       1.15600000
H       -2.08090000      -0.15740000       0.51290000
H       -1.61500000      -0.10240000      -1.19310000
H       -0.70550000      -2.47750000      -2.31170000
H        0.27760000      -3.29920000      -1.06980000
H       -2.54740000      -3.96790000      -1.99790000
H       -1.16180000      -5.69790000      -1.27480000
H       -3.53920000      -2.81690000       0.17670000
H       -0.86810000      -3.52330000       1.10780000
