17
Properties=species:S:1:pos:R:3 gdb_20211=T pbc="F F F"
C       -0.03790000       1.53730000      -0.20970000
O        1.22950000       2.05840000       0.18380000
C        2.00400000       1.03990000       0.83090000
C        1.75260000       1.08840000       2.34510000
C        0.36100000       0.42980000       2.46520000
N        0.25150000      -0.52900000       1.33660000
C        0.01660000       0.03690000      -0.01010000
C        1.38860000      -0.30280000       0.42580000
H       -0.84020000       2.01590000       0.37100000
H       -0.21170000       1.76890000      -1.26870000
H        3.04940000       1.17710000       0.54480000
H        2.50440000       0.48550000       2.86730000
H        1.79600000       2.10840000       2.73380000
H        0.24370000      -0.12990000       3.39670000
H       -0.44470000       1.17090000       2.42830000
H       -0.57650000      -0.59330000      -0.66630000
H        1.97900000      -1.14690000       0.08690000
