19
Properties=species:S:1:pos:R:3 gdb_79998=T pbc="F F F"
C       -0.08600000       1.62390000       0.05930000
C        0.05110000       0.11340000       0.08700000
C        1.16260000      -0.62560000      -0.71810000
C        2.42790000      -0.03360000      -0.03670000
C        2.16490000      -0.02570000       1.28380000
C        0.77570000      -0.64420000       1.29560000
C       -0.17670000      -1.59870000       2.01570000
O       -0.26810000      -2.39730000       0.78330000
C        0.97920000      -1.80380000       0.31590000
H        0.86160000       2.13050000       0.25830000
H       -0.44710000       1.95450000      -0.92120000
H       -0.81670000       1.96020000       0.80350000
H       -0.91980000      -0.35420000      -0.09210000
H        1.17040000      -0.71550000      -1.80610000
H        3.31180000       0.31300000      -0.55300000
H        2.77540000       0.31710000       2.10650000
H        0.26920000      -2.18830000       2.82720000
H       -1.15550000      -1.21500000       2.32030000
H        1.80950000      -2.50880000       0.41510000
