13
Properties=species:S:1:pos:R:3 gdb_17426=T pbc="F F F"
O        0.08190000       1.45780000      -0.04560000
C       -0.02900000       0.10100000      -0.07380000
C        0.41320000      -0.76130000      -1.25290000
N       -0.52100000      -1.85250000      -0.77180000
C       -0.42090000      -1.87660000       0.72470000
C       -1.31040000      -0.89220000      -0.00730000
C        0.40860000      -0.71240000       1.15080000
O        0.93960000      -0.34660000       2.16590000
H        0.33720000       1.70890000       0.85480000
H        0.04290000      -0.41350000      -2.21940000
H        1.47080000      -1.03830000      -1.32280000
H       -0.68240000      -2.79050000       1.23850000
H       -2.38630000      -0.78810000       0.01560000
