16
Properties=species:S:1:pos:R:3 gdb_10755=T pbc="F F F"
C        0.33520000       1.31910000       0.20650000
C       -0.17640000      -0.10870000      -0.00160000
O        0.22140000      -0.98970000       1.03870000
C       -1.71130000      -0.13540000       0.02940000
O       -2.40110000       0.69220000      -0.50400000
C        0.24860000      -0.62280000      -1.38120000
C        1.30190000      -1.63030000      -1.55320000
O       -0.07640000      -1.97520000      -1.69060000
H        1.41890000       1.37030000       0.05300000
H       -0.15130000       1.99830000      -0.49710000
H        0.10550000       1.65350000       1.22190000
H        1.12760000      -0.77890000       1.28370000
H       -2.12770000      -1.00350000       0.58080000
H        0.05540000       0.08190000      -2.19090000
H        1.88500000      -1.64370000      -2.47300000
H        1.79060000      -2.04980000      -0.67690000
