18
Properties=species:S:1:pos:R:3 gdb_67688=T pbc="F F F"
C       -0.16850000       1.49690000      -0.03780000
C        0.11230000       0.03090000       0.03280000
C        0.77120000      -0.84660000      -0.93540000
C        1.68090000      -1.87150000      -0.26510000
C        1.43700000      -1.65160000       1.25120000
C        0.10070000      -0.88580000       1.28770000
C       -0.94500000      -1.68070000       0.50080000
O       -1.77580000      -2.49440000       0.76710000
N       -0.73100000      -1.00050000      -0.76000000
H        0.65510000       2.07090000       0.40160000
H       -0.29110000       1.81520000      -1.07660000
H       -1.08430000       1.75030000       0.50590000
H        1.00000000      -0.49750000      -1.93710000
H        1.42570000      -2.88760000      -0.58270000
H        2.72360000      -1.69640000      -0.54540000
H        1.38590000      -2.58720000       1.81400000
H        2.22930000      -1.03690000       1.69080000
H       -0.19710000      -0.48640000       2.25660000
