14
Properties=species:S:1:pos:R:3 gdb_17188=T pbc="F F F"
O        0.02280000       1.39700000       0.01290000
C        0.01000000      -0.01760000      -0.03530000
C       -1.38730000      -0.54360000       0.03950000
O       -2.32490000      -0.13920000      -1.01160000
C       -3.15460000      -0.96120000      -0.14320000
C       -2.01460000      -1.96910000       0.20910000
O       -2.18850000      -1.84340000       1.64660000
C       -2.46680000      -0.49430000       1.17420000
H       -0.58350000       1.70500000      -0.67080000
H        0.49450000      -0.40250000      -0.94650000
H        0.57770000      -0.37970000       0.82790000
H       -4.20160000      -1.11500000      -0.40020000
H       -1.74350000      -2.93480000      -0.21600000
H       -2.72290000       0.28360000       1.89160000
