16
Properties=species:S:1:pos:R:3 gdb_44103=T pbc="F F F"
O        0.02380000       0.01640000       0.05310000
C       -0.02020000       1.22070000       0.03110000
C       -1.27670000       2.13870000       0.03360000
C       -0.67420000       3.50990000      -0.00230000
C        0.65240000       3.40290000      -0.02140000
C        1.31570000       4.73860000      -0.05760000
O        0.21230000       5.64630000      -0.05750000
C       -1.05270000       4.95450000      -0.02390000
N        1.08150000       2.07660000      -0.00270000
H       -1.90230000       1.88810000      -0.83100000
H       -1.87400000       1.92190000       0.92690000
H        1.95870000       4.92710000       0.81650000
H        1.93050000       4.89310000      -0.95820000
H       -1.64260000       5.24610000      -0.90660000
H       -1.61420000       5.28000000       0.86530000
H        2.02840000       1.73730000      -0.01200000
