17
Properties=species:S:1:pos:R:3 gdb_70507=T pbc="F F F"
O       -0.00820000       1.41710000       0.04290000
C       -0.00900000       0.03010000       0.02950000
C       -0.42800000      -0.74880000      -1.19890000
C       -1.28600000      -0.77830000       0.05390000
C       -1.08370000      -1.93950000       1.02930000
C        0.35420000      -1.79570000       1.46810000
C        0.92940000      -0.70090000       0.94290000
C        2.28990000      -0.23560000       1.18880000
O        2.74790000       0.77890000       0.69570000
H        0.91860000       1.68180000      -0.05070000
H       -0.81820000      -0.15320000      -2.01710000
H        0.12920000      -1.63380000      -1.49270000
H       -2.24680000      -0.28030000       0.01390000
H       -1.75780000      -1.87970000       1.89460000
H       -1.26760000      -2.91880000       0.56750000
H        0.85200000      -2.51070000       2.11580000
H        2.90150000      -0.86240000       1.87160000
