16
Properties=species:S:1:pos:R:3 gdb_99077=T pbc="F F F"
O        0.10450000       1.38680000      -0.19460000
C       -0.07510000       0.02170000      -0.40140000
C       -1.37760000      -0.47550000       0.19420000
O       -2.15100000       0.30870000       0.69820000
C       -1.66150000      -1.97040000       0.14880000
C       -3.14780000      -2.23020000      -0.15620000
O       -3.50080000      -1.83460000      -1.46710000
C       -3.49380000      -3.64190000       0.09340000
N       -3.74190000      -4.75870000       0.25590000
H       -0.71910000       1.69780000       0.21310000
H       -0.09660000      -0.23450000      -1.47680000
H        0.75510000      -0.56060000       0.03190000
H       -1.02350000      -2.47610000      -0.58390000
H       -1.40710000      -2.38230000       1.13370000
H       -3.74070000      -1.59760000       0.51180000
H       -3.12660000      -2.46680000      -2.09180000
