25
Properties=species:S:1:pos:R:3 gdb_122894=T pbc="F F F"
C        0.03820000       1.63240000       0.06830000
C        0.00270000       0.10270000       0.01220000
C        0.70070000      -0.47140000      -1.22550000
C        0.67090000      -2.00300000      -1.28890000
C        1.36590000      -2.55870000      -2.53670000
C        1.45180000      -4.10460000      -2.58880000
C        0.06920000      -4.78450000      -2.66200000
C        2.28690000      -4.52580000      -3.71370000
C        2.95890000      -4.85810000      -4.65390000
H        1.06890000       2.00390000       0.08320000
H       -0.45720000       2.07210000      -0.80470000
H       -0.46530000       2.01240000       0.96270000
H        0.47270000      -0.30850000       0.91560000
H       -1.04010000      -0.24090000       0.03130000
H        0.22980000      -0.06140000      -2.13000000
H        1.74390000      -0.12650000      -1.24690000
H        1.15350000      -2.41260000      -0.39010000
H       -0.37260000      -2.34000000      -1.25490000
H        0.85160000      -2.20590000      -3.44000000
H        2.38520000      -2.15880000      -2.59020000
H        1.94370000      -4.44000000      -1.66390000
H       -0.47870000      -4.44570000      -3.54690000
H        0.17740000      -5.87010000      -2.72770000
H       -0.52810000      -4.55460000      -1.77580000
H        3.56000000      -5.15750000      -5.47620000
