20
Properties=species:S:1:pos:R:3 gdb_83837=T pbc="F F F"
C       -0.21750000       1.48870000       0.23070000
C        0.01830000       0.00940000       0.02180000
C        0.54140000      -0.60690000      -1.24570000
C        1.05440000       0.24790000      -2.41310000
N        2.50180000       0.47450000      -2.43400000
C        2.98950000       1.01370000      -1.16490000
C        2.66500000       0.14800000       0.06050000
O        3.44070000       0.05630000       0.98850000
C        1.40160000      -0.64780000       0.01470000
H        0.50570000       2.12020000      -0.28840000
H       -1.21390000       1.76950000      -0.12870000
H       -0.16500000       1.73860000       1.29520000
H       -0.71480000      -0.60380000       0.54050000
H        0.09030000      -1.55190000      -1.53420000
H        0.77680000      -0.23300000      -3.35540000
H        0.56760000       1.23080000      -2.41450000
H        2.97050000      -0.40920000      -2.61300000
H        4.07580000       1.13520000      -1.19680000
H        2.56510000       2.01760000      -1.02500000
H        1.47800000      -1.57410000       0.57450000
