20
Properties=species:S:1:pos:R:3 gdb_76830=T pbc="F F F"
C       -0.53390000       1.54650000      -0.33870000
C       -0.17980000       0.07060000      -0.21880000
C        1.02740000      -0.51760000      -1.04370000
C        1.84760000       0.38770000      -1.95510000
C        1.68320000      -1.02230000       0.28650000
C        0.49200000      -0.41910000       1.10070000
N        1.45940000       0.49370000       1.71280000
C        2.54840000       0.04790000       0.98460000
O        3.68960000       0.42070000       0.92580000
H        0.32190000       2.19190000      -0.12050000
H       -0.87950000       1.78710000      -1.34920000
H       -1.33920000       1.81100000       0.35630000
H       -1.07680000      -0.52840000      -0.40680000
H        0.68420000      -1.37950000      -1.62330000
H        2.25240000       1.25540000      -1.42770000
H        2.69790000      -0.16010000      -2.37450000
H        1.23990000       0.75100000      -2.79080000
H        2.01170000      -2.05800000       0.34830000
H       -0.11110000      -0.98470000       1.81250000
H        1.32520000       1.37790000       2.18450000
