18
Properties=species:S:1:pos:R:3 gdb_103252=T pbc="F F F"
C        0.00050000       1.56410000       0.12980000
C        0.02090000       0.05090000       0.06490000
C       -1.25490000      -0.56830000      -0.49590000
O       -1.52060000      -0.17300000      -1.83290000
C        1.26460000      -0.74490000      -0.22540000
N        2.47910000      -0.16390000       0.35020000
C        1.93170000      -0.14350000       1.64770000
O        2.35630000       0.27790000       2.68550000
C        0.65340000      -0.81990000       1.16660000
H        0.93170000       1.97810000       0.52150000
H       -0.15470000       1.98610000      -0.86930000
H       -0.81090000       1.91240000       0.77890000
H       -1.15760000      -1.65930000      -0.51860000
H       -2.10060000      -0.33160000       0.16740000
H       -1.88250000       0.71760000      -1.81800000
H        1.32990000      -1.52360000      -0.97440000
H        2.99120000       0.61350000      -0.05120000
H        0.12000000      -1.62760000       1.64900000
