17
Properties=species:S:1:pos:R:3 gdb_97666=T pbc="F F F"
O        0.29420000       0.83070000      -0.89700000
C       -0.04960000       0.10690000       0.27500000
C       -1.39240000      -0.47230000       0.24130000
C       -2.52610000      -0.88760000       0.19560000
C       -3.85820000      -1.42950000       0.16070000
O       -4.75890000      -0.95050000       1.12060000
C       -4.42210000      -1.88700000      -1.18870000
C       -3.99350000      -2.90250000      -0.16170000
O       -2.87570000      -3.69990000      -0.36290000
H       -0.39820000       1.48220000      -1.04960000
H        0.70090000      -0.68610000       0.36440000
H        0.04330000       0.73020000       1.17880000
H       -4.97980000      -0.04060000       0.88980000
H       -5.48510000      -1.72720000      -1.33350000
H       -3.79440000      -1.76000000      -2.06330000
H       -4.78020000      -3.41100000       0.38770000
H       -2.08980000      -3.16160000      -0.20220000
