17
Properties=species:S:1:pos:R:3 gdb_126735=T pbc="F F F"
C        0.06730000       1.49190000      -0.25960000
C        0.00090000       0.01150000       0.11390000
N       -1.35650000      -0.51740000       0.03790000
C       -1.87040000      -1.35700000      -0.90340000
C       -3.19590000      -1.54120000      -0.58480000
C       -3.39220000      -0.76050000       0.57960000
C       -4.64740000      -0.61550000       1.33090000
O       -4.80620000       0.05160000       2.32460000
N       -2.25880000      -0.14180000       0.94430000
H        1.09440000       1.85490000      -0.16190000
H       -0.25980000       1.65190000      -1.29110000
H       -0.57520000       2.07500000       0.40370000
H        0.61890000      -0.59480000      -0.55370000
H        0.35460000      -0.14330000       1.13660000
H       -1.25800000      -1.74650000      -1.70110000
H       -3.91840000      -2.15010000      -1.10440000
H       -5.48620000      -1.19990000       0.88730000
