18
Properties=species:S:1:pos:R:3 gdb_36403=T pbc="F F F"
N        0.04020000      -1.18110000      -0.14490000
C        0.02100000      -0.02740000      -0.09430000
C       -0.00420000       1.43710000       0.00010000
N        1.33360000       1.98540000       0.04800000
C        2.15020000       1.74890000       1.26330000
C        2.58390000       3.21650000       1.19520000
C        3.17640000       4.07420000       2.23600000
N        3.93530000       3.72190000       1.01560000
C        1.46190000       3.45820000       0.18430000
H       -0.51930000       1.83110000      -0.88400000
H       -0.62220000       1.70820000       0.87960000
H        1.55200000       1.51810000       2.15950000
H        2.92250000       0.98110000       1.14440000
H        2.89590000       5.12160000       2.31120000
H        3.45330000       3.61160000       3.18070000
H        4.61820000       2.99550000       1.21930000
H        1.73210000       3.97790000      -0.73970000
H        0.57680000       3.93760000       0.63290000
