15
Properties=species:S:1:pos:R:3 gdb_15937=T pbc="F F F"
O       -0.77550000       1.14400000       0.72040000
C        0.14860000       0.87820000      -0.00810000
C        1.38220000       1.72300000      -0.14260000
C        1.66850000       2.77320000       0.95190000
O        1.79940000       3.84130000      -0.01960000
C        1.51660000       2.96000000      -1.10620000
C        2.77220000       2.27230000      -1.68580000
N        2.51740000       1.08370000      -0.82420000
H        0.14950000      -0.01870000      -0.66500000
H        0.81580000       2.94130000       1.61730000
H        2.58400000       2.61780000       1.53520000
H        0.74240000       3.33590000      -1.77750000
H        2.73870000       2.02700000      -2.75310000
H        3.68370000       2.84070000      -1.47260000
H        3.28320000       0.79400000      -0.22470000
