21
Properties=species:S:1:pos:R:3 gdb_73502=T pbc="F F F"
O       -0.05530000       1.35770000       0.03330000
C        0.05400000      -0.03560000      -0.03480000
C        1.07850000      -0.63540000      -1.00060000
C        0.32410000      -1.79290000      -1.70120000
C       -0.85910000      -2.16400000      -0.76910000
C       -0.44130000      -3.11550000       0.37790000
C        0.23020000      -2.21580000       1.44660000
C       -0.35440000      -0.82700000       1.19780000
C       -1.21130000      -0.84250000      -0.05830000
H        0.66340000       1.68540000       0.58460000
H        1.38860000       0.13730000      -1.70920000
H        1.98210000      -0.98400000      -0.48630000
H       -0.07550000      -1.43210000      -2.65480000
H        0.96520000      -2.65200000      -1.92450000
H       -1.69360000      -2.57760000      -1.34050000
H       -1.33990000      -3.57280000       0.80680000
H        0.20420000      -3.93070000       0.03420000
H        0.00410000      -2.55780000       2.46090000
H        1.32270000      -2.22570000       1.35310000
H       -0.67160000      -0.22170000       2.04080000
H       -2.19080000      -0.38390000      -0.10840000
