17
Properties=species:S:1:pos:R:3 gdb_41039=T pbc="F F F"
C        0.14450000       1.28060000      -0.30310000
C        1.43420000       1.95990000       0.27530000
C        2.07300000       0.78320000       0.96590000
C        3.13720000      -0.29580000       0.86920000
C        2.71130000       0.25920000       2.24280000
C        1.58690000      -0.82760000       2.34530000
C        2.02200000      -1.39330000       0.95320000
C        0.99350000      -0.28340000       1.07030000
O       -0.19930000       0.15190000       0.54040000
H       -0.72250000       1.94450000      -0.31720000
H        0.33340000       0.92300000      -1.32370000
H        2.02930000       2.41420000      -0.52090000
H        1.16380000       2.74580000       0.98750000
H        4.11880000      -0.27220000       0.41060000
H        3.31730000       0.76680000       2.98430000
H        1.16650000      -1.38340000       3.17310000
H        1.96700000      -2.42400000       0.62790000
