16
Properties=species:S:1:pos:R:3 gdb_32292=T pbc="F F F"
C        0.09040000       1.56340000       0.00760000
C       -0.04040000       0.04290000       0.00330000
C       -1.45690000      -0.46100000       0.01350000
N       -2.46480000       0.34950000       0.02470000
C       -3.73750000      -0.18270000       0.03360000
C       -3.94780000      -1.50990000       0.03070000
O       -2.92310000      -2.38830000       0.01910000
C       -1.61140000      -1.93580000       0.00970000
O       -0.71950000      -2.73940000      -0.00070000
H        1.14560000       1.84980000      -0.00030000
H       -0.39470000       2.00520000      -0.86670000
H       -0.37980000       1.99880000       0.89320000
H        0.46440000      -0.39630000      -0.86780000
H        0.47910000      -0.40260000       0.86250000
H       -4.56600000       0.51400000       0.04290000
H       -4.91420000      -1.99840000       0.03720000
