15
Properties=species:S:1:pos:R:3 gdb_50068=T pbc="F F F"
O       -0.15640000      -0.00650000      -0.46660000
C       -0.06570000       1.14090000      -0.10410000
C        1.24290000       1.77760000       0.21480000
C        1.44430000       3.24320000      -0.04380000
C        1.40440000       2.77630000       1.38740000
C        0.25060000       3.15720000       2.23420000
O       -0.86750000       3.41800000       1.84150000
C        0.51630000       3.25210000       3.74530000
O        1.58730000       3.04470000       4.25030000
H       -0.95200000       1.79710000      -0.00820000
H        2.08860000       1.11270000       0.07640000
H        2.39680000       3.56630000      -0.44600000
H        0.57700000       3.80480000      -0.37670000
H        2.33800000       2.68500000       1.92820000
H       -0.39010000       3.53950000       4.31700000
