21
Properties=species:S:1:pos:R:3 gdb_111854=T pbc="F F F"
C       -0.22010000       1.47190000       0.13660000
C        0.18370000       0.01510000      -0.12100000
C        0.83480000      -0.61600000       1.08970000
C        0.03140000      -1.29840000       2.18780000
O       -1.29060000      -1.64370000       1.86460000
C       -1.27550000      -2.93500000       1.24030000
C        0.09030000      -3.06750000       0.53440000
C        0.97770000      -2.09850000       1.32720000
O        2.23480000      -2.52510000       1.75820000
H        0.64760000       2.08370000       0.40690000
H       -0.67930000       1.91750000      -0.75130000
H       -0.94140000       1.53320000       0.95760000
H       -0.70720000      -0.55450000      -0.40230000
H        0.87340000      -0.03510000      -0.97310000
H        1.69240000      -0.07080000       1.48030000
H        0.21450000      -1.08050000       3.23620000
H       -1.39190000      -3.71890000       2.00450000
H       -2.13350000      -2.98530000       0.56460000
H        0.49410000      -4.08140000       0.60610000
H        0.03200000      -2.81260000      -0.52790000
H        2.10960000      -3.24730000       2.38470000
