15
Properties=species:S:1:pos:R:3 gdb_9794=T pbc="F F F"
C       -0.16290000       1.47570000      -0.27350000
C        0.03140000      -0.00860000      -0.07140000
C        0.93980000      -0.78620000      -0.93000000
O        1.31000000      -0.41720000       0.40480000
C       -1.15250000      -0.69960000       0.61970000
O       -2.35830000      -0.54170000      -0.10590000
C       -0.88130000      -2.12360000       0.90110000
N       -0.71480000      -3.25330000       1.07530000
H        0.69450000       1.90350000      -0.79700000
H       -1.07160000       1.67090000      -0.84830000
H       -0.26020000       1.98040000       0.69400000
H        0.78100000      -1.85170000      -1.08410000
H        1.48250000      -0.27140000      -1.72090000
H       -1.32540000      -0.19750000       1.57910000
H       -2.27500000      -1.02780000      -0.93500000
