20
Properties=species:S:1:pos:R:3 gdb_63827=T pbc="F F F"
C        0.24280000       1.47000000       0.01770000
C        0.03120000      -0.04100000      -0.00640000
C       -1.45090000      -0.38730000      -0.16080000
C        0.94560000      -0.83370000      -1.01250000
C        1.54460000      -1.65230000       0.16300000
N        2.93450000      -1.30840000       0.50050000
C        2.85910000      -0.48930000       1.46510000
O        1.64770000      -0.12950000       1.96810000
C        0.67700000      -0.84300000       1.17060000
H        1.29410000       1.73250000       0.15890000
H       -0.08970000       1.90970000      -0.92950000
H       -0.32920000       1.93900000       0.82570000
H       -1.84210000       0.00060000      -1.10770000
H       -1.61470000      -1.47090000      -0.15440000
H       -2.04360000       0.04610000       0.65280000
H        0.39610000      -1.42170000      -1.75240000
H        1.69330000      -0.22710000      -1.52850000
H        1.42120000      -2.73560000       0.10820000
H        3.70200000      -0.02200000       1.96270000
H       -0.01350000      -1.34350000       1.85270000
