14
Properties=species:S:1:pos:R:3 gdb_33697=T pbc="F F F"
N       -0.08380000      -1.13380000      -0.05910000
C       -0.02980000       0.02240000      -0.01070000
C        0.03230000       1.43610000       0.04090000
C       -0.99040000       2.35410000       0.73940000
O       -0.35170000       3.33820000       1.48070000
C        0.78000000       3.59060000       0.69470000
C        0.50050000       3.39260000      -0.78260000
C        1.28180000       2.34080000      -0.00050000
C       -0.75700000       2.50630000      -0.74090000
H       -1.90260000       1.96510000       1.16920000
H        1.43690000       4.35670000       1.08130000
H        0.80600000       4.05450000      -1.57930000
H        2.30970000       2.01650000      -0.06520000
H       -1.50190000       2.36790000      -1.51080000
