21
Properties=species:S:1:pos:R:3 gdb_78500=T pbc="F F F"
C        0.04830000       1.61020000       0.03160000
C        0.08110000       0.08990000       0.00040000
C        0.76140000      -0.65790000      -1.15100000
C        2.24370000      -0.79030000      -0.72970000
C        3.41490000      -0.89380000      -1.64570000
O        2.39280000      -0.09190000       0.51400000
C        1.11000000      -0.66080000       0.89620000
C        1.24190000      -1.77320000      -0.21580000
C        1.10350000      -3.25990000      -0.23540000
H        1.06140000       2.01290000      -0.03940000
H       -0.54200000       2.00660000      -0.80180000
H       -0.40270000       1.97680000       0.96090000
H       -0.91370000      -0.33800000       0.17000000
H        0.44370000      -0.74590000      -2.18380000
H        3.71830000       0.09690000      -2.00120000
H        4.27030000      -1.35270000      -1.13960000
H        3.16230000      -1.50290000      -2.51890000
H        0.99240000      -0.78100000       1.97230000
H        0.08170000      -3.57490000       0.00650000
H        1.34040000      -3.65540000      -1.22920000
H        1.77990000      -3.73740000       0.48270000
