17
Properties=species:S:1:pos:R:3 gdb_9098=T pbc="F F F"
C       -0.14210000       1.42800000      -0.03110000
N        0.03030000      -0.01540000      -0.03860000
C        0.03500000      -0.72860000       1.22160000
C       -1.34730000      -0.78110000       1.91110000
C       -1.31140000      -1.67600000       3.13060000
O       -1.50680000      -1.30750000       4.25900000
C        0.21050000      -0.67040000      -1.22440000
O        0.21910000      -0.15520000      -2.32100000
H        0.59780000       1.89810000       0.62720000
H       -0.00190000       1.78210000      -1.05240000
H       -1.14290000       1.71410000       0.31120000
H        0.38520000      -1.74890000       1.02880000
H        0.76050000      -0.26320000       1.90180000
H       -1.68160000       0.21260000       2.21840000
H       -2.07320000      -1.19620000       1.19940000
H       -1.07030000      -2.74280000       2.91040000
H        0.35590000      -1.75820000      -1.07040000
