20
Properties=species:S:1:pos:R:3 gdb_116387=T pbc="F F F"
C        0.13990000       1.53790000       0.25210000
C       -0.06730000       0.04260000      -0.00770000
C        0.57290000      -0.46560000      -1.30840000
C        0.82350000      -1.98190000      -1.27000000
O        1.38220000      -2.42190000      -2.50130000
C        0.50310000      -2.17950000      -3.54360000
O        0.17570000      -0.79590000      -3.69720000
C       -0.20620000      -0.11790000      -2.56520000
N       -1.08650000       0.78880000      -2.60580000
H        1.20700000       1.78370000       0.30130000
H       -0.31600000       2.13070000      -0.54260000
H       -0.31130000       1.83020000       1.20540000
H        0.36220000      -0.53030000       0.82530000
H       -1.13850000      -0.18420000      -0.02670000
H        1.56110000       0.00030000      -1.43430000
H        1.54320000      -2.23560000      -0.48870000
H       -0.11480000      -2.52420000      -1.06530000
H        0.98830000      -2.47930000      -4.47350000
H       -0.43780000      -2.73870000      -3.40150000
H       -1.46260000       0.86600000      -3.55320000
