17
Properties=species:S:1:pos:R:3 gdb_114301=T pbc="F F F"
O        0.82210000      -1.27670000      -0.86780000
C        0.22810000      -0.29850000      -0.03100000
C       -1.28650000      -0.35910000      -0.12600000
C       -2.24050000       0.60370000       0.63240000
C       -2.89720000       0.84940000      -0.72540000
C       -1.94410000       1.45260000      -1.68660000
C       -0.93180000       2.39700000      -1.28360000
N       -0.14760000       3.19480000      -0.98750000
N       -1.91400000      -0.02410000      -1.47300000
H        0.52940000      -1.10110000      -1.76890000
H        0.52300000      -0.54780000       0.99500000
H        0.61230000       0.70570000      -0.24510000
H       -1.58180000      -1.39640000       0.05400000
H       -2.88080000       0.10050000       1.35690000
H       -1.79870000       1.48790000       1.09970000
H       -3.96110000       0.82800000      -0.93770000
H       -2.33910000       1.66890000      -2.67550000
