18
Properties=species:S:1:pos:R:3 gdb_85205=T pbc="F F F"
C       -0.30150000       1.41200000       0.12280000
C        0.05210000      -0.06940000       0.08890000
C        1.14810000      -0.43670000      -0.96490000
C        2.15990000      -0.39080000       0.18790000
O        3.31840000      -0.10130000       0.27890000
C        1.04390000      -0.52530000       1.23180000
N        1.19700000       0.19540000       2.45970000
C        0.70500000      -0.26960000       3.64490000
O        0.00920000      -1.25400000       3.76200000
H        0.59670000       2.04130000       0.13920000
H       -0.88280000       1.69170000      -0.76110000
H       -0.89290000       1.65400000       1.01060000
H       -0.84990000      -0.68140000       0.03980000
H        1.03610000      -1.44620000      -1.37130000
H        1.32650000       0.26210000      -1.78520000
H        0.85340000      -1.57650000       1.47150000
H        1.85680000       0.95840000       2.48060000
H        1.00930000       0.36710000       4.49790000
