21
Properties=species:S:1:pos:R:3 gdb_117697=T pbc="F F F"
C        0.18430000       1.39400000      -0.03420000
O        0.12310000      -0.01380000      -0.02120000
C        0.57110000      -0.58860000       1.19090000
C        0.56430000      -2.11390000       0.99760000
C       -0.86810000      -2.63320000       0.81680000
O        1.35800000      -2.42380000      -0.14100000
C        1.26830000      -2.76530000       2.20920000
C        1.28400000      -4.22200000       2.18210000
C        1.29780000      -5.42350000       2.17980000
H        1.21200000       1.75710000       0.12000000
H       -0.16780000       1.72760000      -1.01310000
H       -0.45760000       1.83370000       0.74410000
H        1.59480000      -0.24740000       1.41520000
H       -0.08190000      -0.29030000       2.02710000
H       -1.34920000      -2.11440000      -0.01610000
H       -0.84720000      -3.70430000       0.60780000
H       -1.46960000      -2.46420000       1.71680000
H        1.07880000      -1.80790000      -0.83000000
H        2.29910000      -2.39270000       2.23760000
H        0.77730000      -2.42370000       3.12970000
H        1.31640000      -6.48500000       2.16900000
