21
Properties=species:S:1:pos:R:3 gdb_97992=T pbc="F F F"
C        0.04800000       1.30100000      -0.69400000
C       -0.06730000       0.25210000       0.42720000
C       -1.39160000      -0.35620000       0.51000000
C       -2.49570000      -0.83520000       0.56480000
C       -3.81550000      -1.45310000       0.62630000
C       -3.81440000      -2.91890000       0.14690000
C       -5.21090000      -3.55790000       0.22180000
C       -5.22060000      -4.95360000      -0.35830000
O       -5.58170000      -5.94340000       0.22370000
H        1.05540000       1.72730000      -0.71620000
H       -0.15780000       0.85150000      -1.66920000
H       -0.66710000       2.11370000      -0.54030000
H        0.68450000      -0.53260000       0.27190000
H        0.18080000       0.71720000       1.39000000
H       -4.19870000      -1.40980000       1.65460000
H       -4.52490000      -0.87600000       0.01730000
H       -3.44030000      -2.95650000      -0.88290000
H       -3.10940000      -3.49480000       0.75600000
H       -5.58160000      -3.60410000       1.25020000
H       -5.91540000      -2.95200000      -0.36780000
H       -4.84840000      -5.01190000      -1.40910000
