18
Properties=species:S:1:pos:R:3 gdb_36583=T pbc="F F F"
C        0.04960000      -1.23220000      -0.03070000
C        0.02280000      -0.03350000      -0.11520000
C        0.02780000       1.42020000      -0.20800000
C        1.38170000       2.03500000       0.20820000
C        1.39380000       3.55350000       0.09580000
C        2.67640000       4.23310000      -0.26000000
N        1.59000000       4.16980000      -1.24360000
C        0.45140000       4.23840000       0.94970000
C       -0.32860000       4.77370000       1.69170000
H        0.05540000      -2.29150000       0.04120000
H       -0.21390000       1.72580000      -1.23420000
H       -0.76270000       1.83860000       0.42620000
H        1.60620000       1.74130000       1.23900000
H        2.17920000       1.62440000      -0.42130000
H        2.87820000       5.22460000       0.13280000
H        3.55250000       3.60320000      -0.39410000
H        1.77900000       3.43140000      -1.91890000
H       -1.01770000       5.26150000       2.33600000
