22
Properties=species:S:1:pos:R:3 gdb_109214=T pbc="F F F"
C        0.06940000       1.52080000       0.25480000
C       -0.02810000       0.02260000      -0.08360000
C       -1.43380000      -0.50010000      -0.08080000
C       -2.11560000      -1.01470000      -1.11040000
C       -3.51660000      -1.44850000      -0.73700000
C       -3.58900000      -1.16050000       0.76650000
C       -4.90810000      -0.78850000       1.39180000
N       -2.61580000      -1.97240000       1.53410000
C       -2.28180000      -0.56340000       1.15390000
H        1.11150000       1.85480000       0.24480000
H       -0.48820000       2.12200000      -0.47020000
H       -0.33690000       1.73650000       1.24850000
H        0.42140000      -0.15780000      -1.06650000
H        0.57050000      -0.54450000       0.64270000
H       -1.71330000      -1.15060000      -2.10920000
H       -4.28030000      -0.88250000      -1.28880000
H       -3.69210000      -2.51020000      -0.94900000
H       -5.60740000      -1.63310000       1.37180000
H       -4.78020000      -0.48530000       2.43660000
H       -5.37970000       0.04310000       0.85680000
H       -2.91580000      -1.97550000       2.50940000
H       -2.19020000       0.17340000       1.94620000
