20
Properties=species:S:1:pos:R:3 gdb_59318=T pbc="F F F"
C       -0.01580000       1.56700000      -0.13550000
C        0.04560000       0.06030000       0.11280000
O        0.66610000      -0.24330000       1.35890000
C       -1.33640000      -0.59330000       0.05090000
N       -2.00160000      -0.55720000      -1.25790000
C       -2.17290000      -1.92070000      -1.36960000
O       -2.70470000      -2.60720000      -2.20000000
C       -1.43360000      -2.15840000      -0.02910000
C       -0.16940000      -3.00740000      -0.08030000
H        0.98240000       2.00440000      -0.05130000
H       -0.40560000       1.78890000      -1.13400000
H       -0.66880000       2.05770000       0.59810000
H        0.68920000      -0.39990000      -0.64390000
H        0.18560000       0.22530000       2.05090000
H       -1.95810000      -0.17540000       0.85760000
H       -2.43620000       0.19910000      -1.76690000
H       -2.12330000      -2.55160000       0.72400000
H        0.49750000      -2.69710000      -0.89000000
H        0.38370000      -2.93980000       0.85940000
H       -0.43720000      -4.05240000      -0.26010000
