16
Properties=species:S:1:pos:R:3 gdb_123492=T pbc="F F F"
C       -0.08760000       1.54750000      -0.28810000
N       -0.10190000       0.08650000      -0.26640000
C       -0.23750000      -0.52700000       1.05250000
C       -1.37770000      -0.52420000       0.09480000
C        1.30810000       2.05550000      -0.10330000
N        1.69950000       2.60060000       1.01890000
O        3.04410000       2.91220000       0.78240000
C        3.29690000       2.51480000      -0.46620000
N        2.28790000       1.98290000      -1.07480000
H       -0.45560000       1.87730000      -1.26520000
H       -0.72480000       1.99520000       0.49160000
H        0.34750000      -1.42780000       1.21180000
H       -0.30740000       0.13130000       1.91650000
H       -2.21440000       0.13510000       0.32050000
H       -1.64140000      -1.42130000      -0.45760000
H        4.29730000       2.67680000      -0.84020000
