23
Properties=species:S:1:pos:R:3 gdb_115906=T pbc="F F F"
O       -0.15130000       1.53530000       0.27170000
C        0.03110000       0.12640000       0.19120000
C       -1.33320000      -0.50570000      -0.08450000
C       -1.90750000      -0.11270000      -1.47480000
C       -1.72030000      -1.20400000      -2.56000000
C       -1.67540000      -2.60950000      -1.93810000
C       -2.53460000      -2.67120000      -0.63950000
C       -1.30680000      -2.03680000       0.07890000
C       -0.43270000      -2.71570000      -1.01620000
H        0.71480000       1.94730000       0.33610000
H        0.74470000      -0.12760000      -0.60730000
H        0.43920000      -0.27210000       1.13490000
H       -2.00390000      -0.09610000       0.68200000
H       -2.97970000       0.07120000      -1.35850000
H       -1.47830000       0.84140000      -1.79210000
H       -2.53910000      -1.13160000      -3.28520000
H       -0.79480000      -1.04260000      -3.12720000
H       -1.82090000      -3.38900000      -2.69060000
H       -3.48920000      -2.13800000      -0.61190000
H       -2.69410000      -3.70350000      -0.31660000
H       -1.11960000      -2.31750000       1.11950000
H       -0.20740000      -3.75300000      -0.75230000
H        0.48900000      -2.22530000      -1.34300000
