16
Properties=species:S:1:pos:R:3 gdb_46959=T pbc="F F F"
N       -0.20450000       1.28040000      -0.08010000
C       -0.06990000       0.02880000      -0.13880000
O        1.09290000      -0.67920000       0.00120000
C        0.79110000      -2.07320000       0.20790000
C       -0.60380000      -2.25470000      -0.41120000
C       -1.69850000      -3.03420000       0.37150000
N       -2.67930000      -2.02920000       0.82570000
C       -2.28430000      -0.89590000       0.40870000
N       -1.11670000      -0.87630000      -0.37270000
H        0.68020000       1.72240000       0.16200000
H        1.57050000      -2.66230000      -0.27760000
H        0.79370000      -2.28490000       1.28490000
H       -0.51900000      -2.59720000      -1.44660000
H       -2.19530000      -3.77020000      -0.26680000
H       -1.30260000      -3.57530000       1.23970000
H       -2.77840000       0.04790000       0.60840000
