22
Properties=species:S:1:pos:R:3 gdb_11460=T pbc="F F F"
C       -0.05320000       1.54640000       0.02860000
C        0.09620000       0.02850000      -0.04200000
C        1.09380000      -0.48080000      -1.09650000
C        1.30870000      -1.95710000      -0.71900000
C        1.16880000      -2.01500000       0.83280000
C        2.48030000      -2.34450000       1.53520000
O        2.86360000      -3.66390000       1.17420000
C        0.62470000      -0.62330000       1.25060000
H        0.90970000       2.02340000       0.24750000
H       -0.41970000       1.95650000      -0.91860000
H       -0.75730000       1.84460000       0.81310000
H       -0.88640000      -0.41050000      -0.26950000
H        0.74130000      -0.34590000      -2.12390000
H        2.03330000       0.08130000      -1.00290000
H        0.53650000      -2.57670000      -1.18670000
H        2.27060000      -2.35550000      -1.05170000
H        0.45690000      -2.79980000       1.10870000
H        3.24950000      -1.61180000       1.23600000
H        2.35030000      -2.25340000       2.62630000
H        3.71540000      -3.85190000       1.57860000
H        1.44360000      -0.00620000       1.64820000
H       -0.13310000      -0.68390000       2.03760000
