20
Properties=species:S:1:pos:R:3 gdb_14018=T pbc="F F F"
C       -0.01430000       1.54340000      -0.47770000
C        0.00590000       0.16110000       0.18530000
C       -1.36330000      -0.48270000       0.25350000
C       -1.93730000      -1.23390000      -0.94680000
C       -1.53450000      -1.96530000       0.29310000
C       -0.51140000      -3.07980000       0.49330000
C       -1.60630000      -3.70140000       1.38690000
O       -2.49980000      -2.59090000       1.14400000
H        0.98890000       1.97900000      -0.51990000
H       -0.40030000       1.48220000      -1.50060000
H       -0.65670000       2.23620000       0.07660000
H        0.68870000      -0.49770000      -0.36700000
H        0.42000000       0.24650000       1.19890000
H       -2.10070000       0.06390000       0.83830000
H       -2.99960000      -1.13930000      -1.14500000
H       -1.31580000      -1.34150000      -1.83200000
H       -0.25470000      -3.65030000      -0.40130000
H        0.40440000      -2.78750000       1.01140000
H       -2.02920000      -4.64750000       1.03010000
H       -1.35780000      -3.79680000       2.45010000
