15
Properties=species:S:1:pos:R:3 gdb_16884=T pbc="F F F"
O        0.08070000       0.07010000       0.35080000
C        0.02160000       1.22600000       0.01730000
N       -0.96870000       2.08760000       0.42850000
C       -1.35350000       3.31300000      -0.26080000
C       -0.12090000       4.01950000      -0.77490000
C        1.10280000       4.12920000       0.11610000
C        1.06690000       3.14460000      -1.01940000
O        0.98970000       1.75610000      -0.77830000
H       -1.68790000       1.60350000       0.94370000
H       -2.02600000       3.10380000      -1.10710000
H       -1.90670000       3.94340000       0.44520000
H       -0.31650000       4.81960000      -1.48100000
H        1.74170000       4.99900000       0.01420000
H        1.02430000       3.73310000       1.12240000
H        1.69950000       3.30920000      -1.88290000
