20
Properties=species:S:1:pos:R:3 gdb_30811=T pbc="F F F"
C       -0.33530000       1.61140000      -0.18610000
C        0.07420000       0.13890000       0.00840000
C        0.82520000      -0.44540000      -1.14510000
C        2.15190000      -0.76920000      -1.31940000
C        3.26000000      -0.62760000      -0.31940000
C        2.30830000      -1.27300000      -2.65700000
C        1.06910000      -1.23310000      -3.24140000
O        0.59880000      -1.58130000      -4.46820000
N        0.17460000      -0.73440000      -2.34260000
H        0.54660000       2.24230000      -0.33100000
H       -0.97500000       1.73410000      -1.06670000
H       -0.88780000       1.98470000       0.68260000
H        0.69570000       0.05390000       0.90520000
H       -0.82610000      -0.45850000       0.21290000
H        3.78470000      -1.57780000      -0.16230000
H        4.01340000       0.10010000      -0.64620000
H        2.88880000      -0.29470000       0.65400000
H        3.22240000      -1.62090000      -3.11460000
H        1.33620000      -1.91870000      -4.98520000
H       -0.80830000      -0.62940000      -2.52510000
