17
Properties=species:S:1:pos:R:3 gdb_41514=T pbc="F F F"
C       -0.07310000       1.43230000      -0.04100000
O        1.25130000       1.95170000       0.24310000
C        1.80930000       0.89540000       0.91170000
N        2.20640000       0.95380000       2.10770000
C        2.07670000      -0.35040000       2.76610000
C        0.61630000      -0.81980000       2.46990000
C        0.51230000      -1.03260000       0.96200000
C        0.12890000      -0.08920000      -0.16110000
N        1.54410000      -0.30260000       0.17760000
H       -0.75920000       1.72750000       0.76170000
H       -0.41080000       1.86220000      -0.98540000
H        2.78780000      -1.10320000       2.40090000
H        2.24320000      -0.21970000       3.83790000
H        0.38100000      -1.75660000       2.98310000
H       -0.06840000      -0.05390000       2.84560000
H        0.45700000      -2.07960000       0.66850000
H       -0.22180000      -0.55330000      -1.07950000
