16
Properties=species:S:1:pos:R:3 gdb_5238=T pbc="F F F"
C        0.05210000       1.36320000      -0.16130000
O        0.08430000      -0.03730000      -0.02360000
C       -1.21380000      -0.60040000       0.05550000
C       -1.12350000      -2.07940000       0.13370000
C       -1.29760000      -2.97150000       1.14690000
C       -1.07130000      -4.27140000       0.59070000
C       -0.77710000      -4.06720000      -0.71990000
O       -0.80810000      -2.74360000      -1.01640000
H        1.08710000       1.70800000      -0.22100000
H       -0.48000000       1.67370000      -1.07500000
H       -0.43540000       1.85020000       0.69890000
H       -1.74480000      -0.23150000       0.94770000
H       -1.80610000      -0.30380000      -0.82660000
H       -1.55190000      -2.73060000       2.16740000
H       -1.12180000      -5.22190000       1.09800000
H       -0.53520000      -4.72440000      -1.53890000
