18
Properties=species:S:1:pos:R:3 gdb_109461=T pbc="F F F"
O       -0.18520000       1.49800000      -0.04260000
C       -0.10870000       0.14610000       0.35590000
C       -1.43410000      -0.57070000       0.07770000
C       -1.74720000      -0.68710000      -1.42180000
O       -1.63220000       0.09940000      -2.32340000
C       -2.05890000      -2.18600000      -1.32690000
C       -1.55050000      -2.11090000       0.12670000
C       -0.66130000      -3.05410000       0.83930000
N       -2.08860000      -2.92760000       1.20420000
H       -0.46490000       1.50220000      -0.96810000
H        0.70870000      -0.38790000      -0.15530000
H        0.12030000       0.14200000       1.42740000
H       -2.24460000      -0.06460000       0.61750000
H       -3.13070000      -2.40210000      -1.39440000
H       -1.52370000      -2.82920000      -2.03060000
H       -0.39140000      -4.00030000       0.37790000
H        0.08930000      -2.64980000       1.51390000
H       -2.18420000      -2.37680000       2.05470000
