15
Properties=species:S:1:pos:R:3 gdb_31678=T pbc="F F F"
C        0.02680000       1.41960000       0.09220000
O        0.01750000      -0.00700000       0.01820000
C        0.60880000      -0.68070000       1.00320000
C        0.75020000      -2.01680000       1.19980000
C        1.48000000      -2.14300000       2.43730000
C        1.89920000      -3.37490000       3.11020000
O        2.51330000      -3.41420000       4.15360000
C        1.71760000      -0.87480000       2.88270000
O        1.18820000       0.02950000       2.01220000
H        1.04990000       1.80840000       0.08970000
H       -0.50210000       1.76100000      -0.79740000
H       -0.48910000       1.77170000       0.99080000
H        0.38810000      -2.80240000       0.55830000
H        1.60700000      -4.30970000       2.58260000
H        2.21790000      -0.47560000       3.74720000
