14
Properties=species:S:1:pos:R:3 gdb_43445=T pbc="F F F"
N       -0.04560000       1.25030000       0.08740000
C       -0.04890000      -0.00120000       0.01160000
C       -1.26640000      -0.89970000      -0.00790000
C       -0.67150000      -2.28880000       0.05730000
C       -1.21250000      -3.46330000       0.76090000
O       -1.24940000      -3.36840000      -0.65970000
C        0.82580000      -2.12500000      -0.07130000
O        1.67000000      -2.95970000      -0.14950000
O        1.10780000      -0.77370000      -0.07120000
H        0.90580000       1.62110000       0.07820000
H       -1.93710000      -0.65470000       0.81740000
H       -1.81900000      -0.75930000      -0.94200000
H       -0.52250000      -4.20400000       1.15930000
H       -2.17230000      -3.36730000       1.26620000
