19
Properties=species:S:1:pos:R:3 gdb_64134=T pbc="F F F"
C       -0.10250000       1.43860000      -0.23960000
C        0.01680000      -0.05740000       0.05550000
C       -1.33810000      -0.70030000       0.34180000
C        0.81850000      -0.80410000      -1.03790000
O        2.15390000      -0.79530000      -0.54740000
C        2.01780000      -0.93560000       0.84820000
O        0.86880000      -0.20240000       1.21950000
C        1.90570000      -2.35250000       1.25160000
C        1.83140000      -3.50410000       1.58700000
H        0.87680000       1.85370000      -0.49390000
H       -0.78820000       1.61970000      -1.07400000
H       -0.48230000       1.96650000       0.63950000
H       -1.98110000      -0.65780000      -0.54410000
H       -1.21080000      -1.74650000       0.63160000
H       -1.84630000      -0.17630000       1.15620000
H        0.45720000      -1.83400000      -1.16390000
H        0.81140000      -0.29670000      -2.00430000
H        2.89740000      -0.48170000       1.31750000
H        1.76820000      -4.52150000       1.88610000
