21
Properties=species:S:1:pos:R:3 gdb_86789=T pbc="F F F"
C        0.21320000       1.48540000      -0.26900000
C        0.08800000       0.01110000       0.05730000
O        0.92310000      -0.81450000      -0.79000000
C        1.39500000      -1.57910000       0.33560000
C        2.91600000      -1.75920000       0.32900000
C        3.36770000      -2.64600000      -0.73590000
C        3.72330000      -3.38890000      -1.61080000
C        0.73450000      -0.59270000       1.33900000
C        1.63870000       0.30210000       2.17970000
H        1.24550000       1.83350000      -0.18280000
H       -0.11660000       1.66120000      -1.29790000
H       -0.41840000       2.08470000       0.39560000
H       -0.96470000      -0.29390000      -0.04130000
H        0.92510000      -2.57260000       0.35440000
H        3.39620000      -0.78020000       0.22510000
H        3.22360000      -2.16560000       1.30200000
H        4.04120000      -4.03690000      -2.38930000
H        0.00730000      -1.08080000       1.99340000
H        2.39670000       0.81710000       1.58350000
H        1.05000000       1.06730000       2.69600000
H        2.15930000      -0.28150000       2.94630000
