16
Properties=species:S:1:pos:R:3 gdb_1329=T pbc="F F F"
C        0.28940000       1.32940000       0.16470000
C       -0.01490000      -0.14970000       0.02320000
C       -1.42110000      -0.56110000       0.40770000
C        0.71810000      -0.93060000      -1.03790000
N        1.03350000      -1.11220000       0.36140000
C        2.26930000      -0.84270000       0.91630000
O        3.33200000      -1.07650000       0.39200000
H        1.31590000       1.55870000      -0.13490000
H       -0.38900000       1.91560000      -0.46370000
H        0.15050000       1.66300000       1.19880000
H       -2.15570000      -0.05510000      -0.22780000
H       -1.55320000      -1.64040000       0.30350000
H       -1.63440000      -0.29010000       1.44750000
H        0.22530000      -1.76660000      -1.52730000
H        1.45950000      -0.41380000      -1.64250000
H        2.17830000      -0.44760000       1.94660000
