14
Properties=species:S:1:pos:R:3 gdb_66889=T pbc="F F F"
N       -0.18060000       1.41720000      -0.13920000
C       -0.00940000       0.02640000      -0.00360000
C       -0.24460000      -0.90250000      -1.23630000
N        0.64850000      -2.04080000      -1.42860000
C        0.65920000      -2.62590000      -0.29930000
N       -0.14760000      -2.01810000       0.74270000
C       -1.06540000      -1.12430000      -0.03390000
C        0.63100000      -0.75140000       1.08310000
O        1.32260000      -0.53160000       2.02490000
H       -0.18610000       1.87990000       0.76370000
H        0.54530000       1.83750000      -0.70900000
H       -0.61290000      -0.38750000      -2.11440000
H        1.26870000      -3.48820000      -0.05650000
H       -2.12760000      -1.07930000       0.16050000
