18
Properties=species:S:1:pos:R:3 gdb_105932=T pbc="F F F"
O        0.07520000       1.01950000       0.86320000
C       -0.08010000       0.12900000      -0.23420000
C       -1.46130000      -0.43970000      -0.16970000
C       -2.70620000       0.35910000       0.26980000
C       -2.28130000      -0.88050000       1.00480000
N       -3.15270000      -1.72000000       0.07740000
C       -3.78430000      -0.42620000      -0.49010000
C       -3.25020000      -0.77710000      -1.88990000
C       -2.15020000      -1.47680000      -1.07230000
H        0.97710000       1.35220000       0.85550000
H        0.06680000       0.65010000      -1.19600000
H        0.66220000      -0.68540000      -0.19090000
H       -2.65210000       1.39520000       0.57300000
H       -2.05450000      -1.09390000       2.04120000
H       -4.83830000      -0.23330000      -0.28840000
H       -3.89320000      -1.50470000      -2.39260000
H       -2.97510000       0.03170000      -2.57150000
H       -1.57880000      -2.32690000      -1.44820000
