19
Properties=species:S:1:pos:R:3 gdb_100842=T pbc="F F F"
O       -0.11240000       1.42540000      -0.25920000
C        0.03690000       0.03510000       0.02260000
C       -1.37810000      -0.53670000       0.03750000
O       -2.03560000      -0.23220000      -1.17850000
C       -1.38300000      -2.06070000       0.20250000
O       -0.68290000      -2.45310000       1.37760000
C       -2.80480000      -2.63170000       0.17290000
C       -2.79790000      -4.14060000       0.26070000
O       -3.43620000      -4.78650000       1.05030000
H        0.75050000       1.79280000      -0.46860000
H        0.62140000      -0.46650000      -0.76320000
H        0.52770000      -0.13760000       0.98770000
H       -1.91820000      -0.08660000       0.89100000
H       -1.78850000       0.67860000      -1.38510000
H       -0.80870000      -2.49020000      -0.62850000
H       -1.23690000      -2.24910000       2.13980000
H       -3.41060000      -2.23080000       0.99410000
H       -3.27480000      -2.33200000      -0.77210000
H       -2.13990000      -4.63820000      -0.48980000
