14
Properties=species:S:1:pos:R:3 gdb_25776=T pbc="F F F"
C       -0.13970000       1.45830000       0.01500000
C        0.01070000      -0.04840000       0.07170000
O        1.08150000      -0.60910000       0.12050000
C       -1.24630000      -0.83960000       0.06510000
N       -1.38620000      -2.13770000       0.10690000
C       -2.73740000      -2.34180000       0.07720000
O       -3.27830000      -3.56870000       0.10540000
C       -3.38610000      -1.14130000       0.01750000
O       -2.42440000      -0.17370000       0.00970000
H        0.85200000       1.91040000       0.02580000
H       -0.67830000       1.75860000      -0.88970000
H       -0.72540000       1.81990000       0.86640000
H       -2.54690000      -4.19760000       0.14860000
H       -4.41330000      -0.82840000      -0.02150000
