15
Properties=species:S:1:pos:R:3 gdb_26893=T pbc="F F F"
N        0.03270000       1.39550000       0.07260000
C       -0.00770000       0.03600000       0.01910000
C       -1.20370000      -0.67080000       0.02440000
N       -2.42720000       0.07550000       0.01500000
C       -1.08580000      -2.07250000       0.00390000
N        0.02410000      -2.77630000      -0.02110000
C        1.22430000      -2.10630000      -0.01050000
O        2.32780000      -2.60810000      -0.01350000
N        1.14220000      -0.67510000       0.00520000
H        0.83630000       1.87250000      -0.30430000
H       -0.86860000       1.81910000      -0.10780000
H       -2.91040000       0.02870000       0.90730000
H       -3.06980000      -0.26860000      -0.69060000
H       -2.01390000      -2.65000000      -0.00520000
H        2.04000000      -0.21200000       0.04050000
