14
Properties=species:S:1:pos:R:3 gdb_126084=T pbc="F F F"
C       -0.41020000       1.49540000      -0.00430000
C        0.16520000       0.10310000       0.01120000
O        1.03540000      -0.09840000      -1.14720000
C        2.20320000      -0.51750000      -0.61120000
N        3.36150000      -0.94050000      -1.03990000
N        3.96860000      -1.26350000       0.14620000
N        3.27560000      -0.94970000       1.28680000
C        2.15180000      -0.52330000       0.77720000
O        0.94750000      -0.10820000       1.22900000
H        0.39450000       2.23380000       0.02850000
H       -0.99570000       1.64090000      -0.91560000
H       -1.06150000       1.63360000       0.86230000
H       -0.60470000      -0.67690000      -0.02050000
H        4.97530000      -1.26290000       0.18340000
