13
Properties=species:S:1:pos:R:3 gdb_27506=T pbc="F F F"
N        0.05490000       1.30000000       0.07740000
C       -0.06560000      -0.03990000       0.02620000
N       -1.20450000      -0.63360000       0.01490000
C       -1.21520000      -2.01750000      -0.00290000
N       -2.23720000      -2.77280000      -0.01110000
N        0.04920000      -2.64260000      -0.01510000
C        1.25590000      -2.02140000      -0.01410000
O        2.33410000      -2.53580000      -0.03080000
O        1.16470000      -0.62930000       0.00980000
H        0.95580000       1.72360000      -0.05830000
H       -0.77960000       1.85200000      -0.01750000
H       -3.07580000      -2.19510000      -0.00020000
H        0.05730000      -3.65210000      -0.03120000
