18
Properties=species:S:1:pos:R:3 gdb_75298=T pbc="F F F"
C        0.33560000       1.37920000      -0.03240000
C        0.03260000      -0.08410000      -0.05800000
C       -0.20870000      -0.88090000      -1.10220000
C       -0.49660000      -2.30110000      -0.67870000
N       -0.26160000      -2.31700000       0.77870000
C        1.11150000      -2.71480000       1.19650000
C        1.31330000      -1.31640000       1.79930000
O        2.16560000      -0.77290000       2.43430000
C       -0.05060000      -0.89700000       1.21360000
H        1.29380000       1.57000000       0.46550000
H        0.37910000       1.79910000      -1.04030000
H       -0.42560000       1.92890000       0.53550000
H       -0.23770000      -0.55720000      -2.13700000
H       -1.53010000      -2.59230000      -0.91590000
H        0.15140000      -3.03880000      -1.17230000
H        1.14470000      -3.54510000       1.91020000
H        1.80310000      -2.93350000       0.37010000
H       -0.77110000      -0.49940000       1.94070000
