23
Properties=species:S:1:pos:R:3 gdb_91143=T pbc="F F F"
C        0.65990000       1.53780000      -0.14150000
C        0.12060000       0.12190000       0.03060000
C        0.66870000      -0.94050000      -0.97260000
C        1.32870000      -1.71460000       0.20930000
C        2.79500000      -1.46820000       0.42550000
C        3.05080000      -0.64450000       1.44680000
C        4.39370000      -0.19820000       1.93450000
C        1.77370000      -0.18660000       2.12910000
C        0.65090000      -0.74360000       1.23270000
H        1.75460000       1.55450000      -0.15790000
H        0.31150000       1.96190000      -1.09020000
H        0.32210000       2.20390000       0.66030000
H       -0.97330000       0.16300000       0.02720000
H       -0.11400000      -1.50440000      -1.48720000
H        1.36590000      -0.55700000      -1.72400000
H        1.06830000      -2.77740000       0.26280000
H        3.55960000      -1.92120000      -0.19950000
H        5.20560000      -0.63170000       1.34420000
H        4.48840000       0.89480000       1.89360000
H        4.54710000      -0.48090000       2.98430000
H        1.71700000      -0.58270000       3.15330000
H        1.73460000       0.90570000       2.23050000
H       -0.16550000      -1.17420000       1.81540000
