14
Properties=species:S:1:pos:R:3 gdb_73784=T pbc="F F F"
N        0.04200000       1.38700000       0.19660000
C       -0.03910000       0.02570000       0.03890000
C       -1.10760000      -0.80130000      -0.06640000
N       -2.46700000      -0.53220000      -0.13620000
C       -0.60110000      -2.17430000      -0.15060000
O       -1.20870000      -3.20310000      -0.23630000
O        0.79630000      -2.13360000      -0.10600000
C        1.16810000      -0.80860000       0.00730000
N        2.35320000      -0.37610000       0.05700000
H        0.97990000       1.74440000       0.06870000
H       -0.66450000       1.93030000      -0.27900000
H       -2.79400000       0.15210000       0.53430000
H       -3.01480000      -1.38300000      -0.08370000
H        3.03290000      -1.13490000       0.00400000
