13
Properties=species:S:1:pos:R:3 gdb_130657=T pbc="F F F"
O        0.01800000      -0.02520000       0.00270000
C        0.01240000       1.17140000       0.00890000
C       -1.20310000       2.12080000       0.03170000
O       -0.69060000       3.47160000       0.03090000
C        0.64880000       3.36610000       0.01040000
C        1.74730000       4.17520000      -0.00190000
C        2.82370000       3.22930000      -0.02270000
N        2.44260000       1.96140000      -0.02340000
N        1.07920000       2.06640000      -0.00250000
H       -1.82870000       1.97060000      -0.85200000
H       -1.80220000       1.96160000       0.93210000
H        1.79690000       5.24960000       0.00280000
H        3.88060000       3.45830000      -0.03740000
