16
Properties=species:S:1:pos:R:3 gdb_81313=T pbc="F F F"
O       -0.05860000       1.47610000       0.08920000
C       -0.00070000       0.08280000      -0.02410000
C       -1.35710000      -0.64290000      -0.10900000
C       -2.31950000       0.13180000      -0.99490000
O       -1.72080000       0.50790000      -2.25130000
C       -0.42540000       0.20250000      -2.48910000
O        0.12350000       0.57980000      -3.48610000
C        0.24080000      -0.61710000      -1.39600000
N       -0.73210000      -1.69330000      -0.98690000
H        0.83280000       1.83810000       0.05090000
H        0.63790000      -0.37600000       0.74410000
H       -1.85190000      -0.98680000       0.80200000
H       -3.19140000      -0.48580000      -1.22910000
H       -2.64340000       1.05390000      -0.50370000
H        1.23570000      -0.92980000      -1.71000000
H       -0.23000000      -2.35170000      -0.39250000
