19
Properties=species:S:1:pos:R:3 gdb_33199=T pbc="F F F"
C       -0.03970000       1.49380000       0.31670000
C       -0.03370000      -0.00420000       0.02980000
N       -1.39410000      -0.53100000      -0.01480000
C       -1.43920000      -1.97480000      -0.22610000
C       -2.83850000      -2.48670000      -0.17650000
N       -3.47650000      -3.20220000      -1.04660000
C       -4.72970000      -3.40840000      -0.47970000
C       -4.77990000      -2.79080000       0.72120000
O       -3.56700000      -2.19520000       0.93550000
H        0.97850000       1.89350000       0.31620000
H       -0.62650000       2.02760000      -0.43600000
H       -0.47830000       1.70450000       1.29920000
H        0.42960000      -0.19250000      -0.94760000
H        0.59790000      -0.52540000       0.77520000
H       -1.87010000      -0.31130000       0.85520000
H       -1.04640000      -2.21130000      -1.21920000
H       -0.82360000      -2.53560000       0.50530000
H       -5.49390000      -3.97980000      -0.98190000
H       -5.51960000      -2.67110000       1.49360000
