21
Properties=species:S:1:pos:R:3 gdb_57414=T pbc="F F F"
C        0.02160000       1.55730000      -0.12020000
C       -0.02140000       0.02180000      -0.02520000
C        0.82270000      -0.43720000       1.18010000
C       -1.47470000      -0.45930000       0.14080000
C        0.55090000      -0.64650000      -1.28010000
C        0.10100000      -0.21750000      -2.69160000
C        1.56690000       0.17760000      -2.86390000
O        2.26710000       0.63430000      -3.70830000
O        1.92370000      -0.20120000      -1.59430000
H        1.04080000       1.91470000      -0.28910000
H       -0.61480000       1.94150000      -0.92380000
H       -0.33870000       1.99780000       0.81460000
H        0.44620000       0.00900000       2.10600000
H        0.78940000      -1.52620000       1.29570000
H        1.86880000      -0.14220000       1.05890000
H       -2.10250000      -0.14640000      -0.70050000
H       -1.52970000      -1.55110000       0.21580000
H       -1.91140000      -0.04220000       1.05370000
H        0.56470000      -1.73280000      -1.14560000
H       -0.22860000      -1.01610000      -3.35790000
H       -0.59650000       0.61840000      -2.75330000
