17
Properties=species:S:1:pos:R:3 gdb_19109=T pbc="F F F"
C       -0.06450000       1.62800000       0.01750000
C        0.04020000       0.11420000       0.01960000
C        1.09330000      -0.61700000      -0.83850000
C        2.49770000      -0.22860000      -0.35050000
C        2.23920000      -0.24430000       1.17290000
C        2.60260000      -1.49790000       0.43790000
N        1.12610000      -1.77480000       0.18450000
C        0.75370000      -0.63770000       1.16230000
H        0.91390000       2.08920000       0.18830000
H       -0.44760000       1.99700000      -0.94010000
H       -0.74330000       1.97900000       0.80220000
H       -0.93310000      -0.36060000      -0.15050000
H        0.93670000      -0.85930000      -1.89020000
H        3.27000000       0.37390000      -0.80990000
H        2.81460000       0.34610000       1.87340000
H        3.37970000      -2.24110000       0.56210000
H        0.25970000      -0.90040000       2.09830000
