14
Properties=species:S:1:pos:R:3 gdb_133052=T pbc="F F F"
C       -0.02200000       1.39010000       0.02310000
O        0.02160000      -0.03520000      -0.03480000
C        0.62420000      -0.59060000      -1.09130000
N        1.15000000       0.19890000      -2.02840000
C        1.73900000      -0.41370000      -3.05770000
C        1.79350000      -1.79290000      -3.13430000
F        2.38180000      -2.40630000      -4.16270000
C        1.21400000      -2.52370000      -2.10270000
N        0.62530000      -1.92880000      -1.07370000
H        0.98540000       1.81510000       0.04070000
H       -0.55950000       1.80330000      -0.83510000
H       -0.54860000       1.62500000       0.94880000
H        2.17610000       0.20600000      -3.83670000
H        1.23250000      -3.61100000      -2.11990000
