20
Properties=species:S:1:pos:R:3 gdb_76472=T pbc="F F F"
C        0.10990000       0.79140000      -2.26960000
C        0.04990000      -0.27470000      -1.19660000
C        1.23610000      -0.62230000      -0.28390000
C        2.58110000       0.06730000      -0.36810000
C        0.03100000       0.07110000       0.25310000
C       -0.13290000       1.40520000       0.97400000
C       -1.05790000       0.60600000       1.87210000
N       -1.75690000       0.86550000       2.87940000
O       -0.87590000      -0.57930000       1.18400000
H        0.68230000       1.66650000      -1.94920000
H        0.57760000       0.40710000      -3.18230000
H       -0.89650000       1.13540000      -2.53150000
H       -0.56500000      -1.13440000      -1.45210000
H        1.28830000      -1.67740000      -0.02600000
H        2.48300000       1.13890000      -0.56370000
H        3.13460000      -0.04570000       0.57030000
H        3.19420000      -0.35950000      -1.16900000
H        0.75580000       1.79870000       1.47110000
H       -0.62210000       2.20240000       0.41100000
H       -2.25300000       0.03500000       3.20790000
