19
Properties=species:S:1:pos:R:3 gdb_34969=T pbc="F F F"
C       -0.17880000      -1.30180000      -0.14630000
C       -0.09090000      -0.10470000      -0.05920000
C        0.01840000       1.33760000       0.03990000
C       -0.09930000       2.06720000       1.42310000
C        0.99250000       1.36040000       2.24860000
C        2.16170000       1.84750000       1.36490000
C        2.08090000       3.38330000       1.58350000
C        0.76700000       3.24870000       0.80120000
C        1.38180000       2.06280000      -0.00640000
H       -0.25720000      -2.35770000      -0.22500000
H       -0.65030000       1.81390000      -0.68640000
H       -1.07500000       2.23580000       1.87690000
H        1.07180000       1.72600000       3.27630000
H        0.86120000       0.27660000       2.26760000
H        3.10630000       1.30770000       1.40950000
H        2.07210000       3.75520000       2.61330000
H        2.82330000       3.93420000       0.99810000
H        0.23480000       4.07850000       0.33740000
H        1.96430000       2.18420000      -0.91840000
