12
Properties=species:S:1:pos:R:3 gdb_3776=T pbc="F F F"
C        0.02480000       1.41800000       0.00350000
N        0.05000000      -0.03360000      -0.01940000
C       -1.07430000      -0.62190000      -0.03180000
N       -2.39360000      -0.17980000      -0.02880000
N       -3.28530000      -1.21740000      -0.04690000
N       -2.62470000      -2.29620000      -0.06190000
N       -1.30290000      -1.98970000      -0.05400000
H        1.04980000       1.79610000       0.01970000
H       -0.46730000       1.85120000      -0.88350000
H       -0.48520000       1.82350000       0.89350000
H       -2.73160000       0.76520000      -0.01480000
H       -0.60750000      -2.71500000      -0.06190000
