18
Properties=species:S:1:pos:R:3 gdb_108778=T pbc="F F F"
O        0.04600000       1.41800000       0.00120000
C       -0.00500000       0.00950000      -0.03820000
C       -1.42550000      -0.46950000       0.00760000
C       -2.47540000       0.35070000       0.12380000
C       -3.85690000      -0.13700000       0.08380000
N       -4.83690000       0.66990000       0.00610000
O       -4.05370000      -1.49370000       0.07030000
C       -2.98340000      -2.31060000       0.55160000
C       -1.65340000      -1.95530000      -0.10290000
H        0.96790000       1.68890000      -0.01050000
H        0.46900000      -0.39140000      -0.95310000
H        0.54330000      -0.44100000       0.80940000
H       -2.35540000       1.42300000       0.19210000
H       -5.71310000       0.14370000      -0.02360000
H       -2.90220000      -2.19540000       1.64120000
H       -3.28130000      -3.33930000       0.33580000
H       -1.65090000      -2.26280000      -1.15780000
H       -0.84820000      -2.51650000       0.38800000
