21
Properties=species:S:1:pos:R:3 gdb_109863=T pbc="F F F"
C       -0.30580000       1.59220000       0.11390000
C       -0.10330000       0.08280000       0.10710000
C        0.42070000      -0.55300000      -1.19060000
O        1.74130000      -0.03270000      -1.41750000
C        1.58760000      -1.14430000      -0.51390000
C        2.38830000      -2.37900000      -0.77440000
C        1.15180000      -0.54920000       0.84080000
C        2.14390000       0.35080000       1.55110000
O        1.51190000       0.85250000       2.72480000
H        0.53920000       2.09720000      -0.36220000
H       -1.21280000       1.86460000      -0.43680000
H       -0.39690000       1.96450000       1.13760000
H       -1.01070000      -0.42670000       0.44630000
H       -0.12850000      -0.88540000      -2.06570000
H        2.38090000      -2.61950000      -1.84090000
H        3.43110000      -2.24500000      -0.46450000
H        1.98070000      -3.22980000      -0.21860000
H        0.82710000      -1.33390000       1.53170000
H        3.04500000      -0.23100000       1.80870000
H        2.45670000       1.16310000       0.88220000
H        2.09850000       1.49970000       3.12710000
