10
Properties=species:S:1:pos:R:3 gdb_130581=T pbc="F F F"
O        0.02740000      -0.07280000       0.00300000
C       -0.03430000       1.11880000       0.00730000
C        1.13810000       1.99210000       0.00150000
N        2.12690000       2.58880000      -0.00380000
N       -1.26150000       1.83280000       0.01820000
N       -2.46310000       1.24670000       0.02490000
C       -3.25620000       2.29440000       0.03370000
N       -2.57200000       3.48490000       0.03260000
N       -1.31930000       3.18550000       0.02270000
H       -4.33200000       2.22760000       0.04110000
