18
Properties=species:S:1:pos:R:3 gdb_112219=T pbc="F F F"
C        0.15610000       1.50270000       0.21070000
C        0.20790000      -0.02390000       0.10560000
C        0.56660000      -0.50640000      -1.29850000
C        2.06920000      -0.32100000      -1.68740000
C        2.27490000      -1.82580000      -1.50070000
O        3.21600000      -2.54180000      -1.37130000
C        0.73020000      -2.06920000      -1.44570000
C        0.19330000      -2.95330000      -0.43310000
N       -0.22700000      -3.64170000       0.39560000
H        1.11890000       1.95950000      -0.04280000
H       -0.59670000       1.92050000      -0.46670000
H       -0.09990000       1.81440000       1.22710000
H        0.93400000      -0.42340000       0.82590000
H       -0.76140000      -0.44830000       0.39070000
H       -0.13430000      -0.09490000      -2.02810000
H        2.23330000      -0.01690000      -2.72610000
H        2.67880000       0.31470000      -1.04020000
H        0.40230000      -2.40500000      -2.43640000
