12
Properties=species:S:1:pos:R:3 gdb_18846=T pbc="F F F"
O        0.05420000       0.05450000       0.15690000
C       -0.05250000       1.23230000       0.05780000
C       -1.12250000       2.24280000      -0.05890000
C       -0.65540000       3.57000000       0.64220000
N        0.34690000       3.48350000       1.69640000
C        1.26830000       2.75830000       1.20290000
N        1.04070000       2.27030000      -0.14600000
C       -0.05350000       3.17790000      -0.64090000
H       -2.16080000       2.09420000      -0.32090000
H       -1.41970000       4.33090000       0.73350000
H        2.14980000       2.42850000       1.73950000
H       -0.00170000       3.65520000      -1.60980000
