21
Properties=species:S:1:pos:R:3 gdb_69982=T pbc="F F F"
C       -0.01260000       1.49730000      -0.01000000
C       -0.01940000      -0.01250000       0.03270000
C       -0.84260000      -0.73590000       1.07810000
C        0.65960000      -0.82380000       1.12880000
C        1.33410000      -1.96330000       0.33660000
C        1.83790000      -1.20400000      -0.90350000
C        0.39260000      -0.76460000      -1.26610000
C       -0.25560000      -2.15120000      -1.32550000
O        0.34440000      -2.85130000      -0.21510000
H        0.91780000       1.88240000      -0.44460000
H       -0.84300000       1.88710000      -0.61120000
H       -0.10730000       1.91980000       0.99560000
H       -1.31530000      -0.10280000       1.82330000
H       -1.40170000      -1.63240000       0.84300000
H        1.20800000      -0.35930000       1.94270000
H        2.04900000      -2.56360000       0.89960000
H        2.49190000      -0.36470000      -0.65610000
H        2.31660000      -1.84610000      -1.64970000
H        0.26720000      -0.17560000      -2.17560000
H       -1.34400000      -2.13270000      -1.20650000
H       -0.01730000      -2.67180000      -2.26280000
