18
Properties=species:S:1:pos:R:3 gdb_105653=T pbc="F F F"
C       -0.06510000       1.43590000      -0.00540000
O        0.15910000       0.03400000      -0.07590000
C        0.70980000      -0.54070000       1.07530000
C       -0.26970000      -0.73820000       2.26880000
O       -0.34740000      -2.14930000       2.02790000
C        0.67820000      -2.10290000       1.01000000
C        0.26410000      -2.75700000      -0.28800000
C        2.01510000       0.04920000       1.40960000
N        3.03920000       0.51690000       1.67170000
H        0.87440000       1.98650000       0.12850000
H       -0.51960000       1.72090000      -0.95540000
H       -0.75120000       1.69670000       0.81180000
H        0.14530000      -0.49960000       3.25480000
H       -1.23530000      -0.23770000       2.13720000
H        1.61250000      -2.53710000       1.38810000
H       -0.63050000      -2.28520000      -0.69600000
H        1.06940000      -2.68730000      -1.02560000
H        0.05760000      -3.81510000      -0.10060000
