19
Properties=species:S:1:pos:R:3 gdb_61526=T pbc="F F F"
C        0.33290000       0.08240000      -1.83330000
C       -0.11710000       0.31210000      -0.40630000
C       -1.56210000      -0.08720000      -0.13800000
C       -2.10670000       0.19850000       1.28510000
N       -3.56640000       0.28160000       1.39320000
C       -1.63690000      -0.81870000       2.24120000
N       -1.26090000      -1.63800000       2.96420000
C        0.89560000       0.39350000       0.65730000
O        0.26860000       1.58010000       0.14840000
H        1.34950000       0.45510000      -1.97830000
H        0.31290000      -0.98430000      -2.08070000
H       -0.32590000       0.60390000      -2.53620000
H       -2.19160000       0.48530000      -0.83180000
H       -1.70440000      -1.14530000      -0.38710000
H       -1.69770000       1.16400000       1.60460000
H       -3.89860000       1.05260000       0.82180000
H       -3.99340000      -0.56500000       1.02740000
H        0.65580000       0.13770000       1.68570000
H        1.94550000       0.27650000       0.39150000
