19
Properties=species:S:1:pos:R:3 gdb_15230=T pbc="F F F"
C       -0.29220000       1.49560000      -0.15560000
C        0.19230000       0.06640000       0.11480000
C        0.80920000      -0.57440000      -1.11200000
C        0.92550000      -2.05860000      -1.31420000
C        0.44130000      -3.07900000      -0.30820000
C       -0.05370000      -1.25850000      -2.17740000
C       -1.46590000      -1.39550000      -1.96580000
N       -2.60540000      -1.50380000      -1.79110000
H        0.52660000       2.13220000      -0.50890000
H       -1.07810000       1.50440000      -0.91690000
H       -0.69980000       1.94890000       0.75270000
H        0.94110000       0.07340000       0.91710000
H       -0.64490000      -0.53640000       0.47910000
H        1.61830000       0.01170000      -1.54250000
H        1.80720000      -2.37470000      -1.86550000
H       -0.50670000      -2.79240000       0.15150000
H        0.28980000      -4.04950000      -0.79130000
H        1.17950000      -3.21300000       0.48940000
H        0.21450000      -1.09810000      -3.21610000
