18
Properties=species:S:1:pos:R:3 gdb_6868=T pbc="F F F"
C       -0.01950000       1.56860000       0.01450000
C        0.01260000       0.04770000      -0.01680000
O       -1.33620000      -0.40190000      -0.05190000
C        0.75720000      -0.48680000      -1.25420000
O        0.80870000      -1.91110000      -1.20910000
C        1.44840000      -2.35230000      -0.04000000
O        0.76450000      -1.96010000       1.12150000
C        0.71020000      -0.53890000       1.22440000
H        0.99090000       1.98730000       0.04200000
H       -0.53340000       1.95210000      -0.87160000
H       -0.56620000       1.91510000       0.89630000
H       -1.29750000      -1.36630000      -0.07130000
H        0.21620000      -0.22060000      -2.16530000
H        1.77730000      -0.07210000      -1.30610000
H        1.44810000      -3.44360000      -0.06300000
H        2.48590000      -1.96660000      -0.01230000
H        1.72720000      -0.12750000       1.33230000
H        0.13480000      -0.31080000       2.12460000
