15
Properties=species:S:1:pos:R:3 gdb_48339=T pbc="F F F"
O       -0.35120000       0.05720000      -0.06380000
C       -0.08140000       1.16290000       0.32180000
C        1.23450000       1.87560000       0.01150000
C        2.32210000       0.95650000      -0.64370000
C        2.33200000       1.88590000      -1.85810000
O        3.03050000       1.98730000      -2.82090000
C        1.13460000       2.70460000      -1.34390000
C        1.66760000       2.66100000       1.14970000
C        1.99850000       3.30220000       2.11150000
H       -0.79600000       1.76810000       0.91780000
H        3.26520000       0.84760000      -0.10640000
H        1.90780000      -0.03060000      -0.87420000
H        0.21470000       2.51620000      -1.90630000
H        1.29330000       3.78060000      -1.25530000
H        2.30380000       3.86930000       2.95640000
