23
Properties=species:S:1:pos:R:3 gdb_62492=T pbc="F F F"
C       -0.10970000       1.53810000       0.01550000
C       -0.01400000       0.02130000       0.03430000
C       -1.20910000      -0.62590000      -0.64790000
C        1.35690000      -0.63660000      -0.18940000
C        2.53910000       0.13230000      -0.43490000
C        3.53710000       0.77190000      -0.64780000
C        0.68080000      -0.67780000       1.19020000
C        1.27680000       0.14310000       2.32200000
C        0.18810000      -2.03170000       1.67670000
H        0.80820000       2.02790000       0.34060000
H       -0.31930000       1.88750000      -1.00170000
H       -0.92940000       1.88180000       0.65710000
H       -1.31980000      -0.23200000      -1.66450000
H       -1.12420000      -1.71120000      -0.72610000
H       -2.13620000      -0.40120000      -0.10700000
H        1.32380000      -1.57560000      -0.73740000
H        4.41870000       1.33140000      -0.83870000
H        1.78780000       1.04120000       1.97510000
H        0.49860000       0.44300000       3.03350000
H        2.01220000      -0.45510000       2.87150000
H        0.99650000      -2.56230000       2.19210000
H       -0.63460000      -1.91370000       2.39220000
H       -0.16290000      -2.67720000       0.86950000
