16
Properties=species:S:1:pos:R:3 gdb_17857=T pbc="F F F"
C       -0.02780000       1.44250000      -0.10560000
O        1.42690000       1.46690000      -0.15740000
C        1.47000000       0.05810000       0.08380000
C       -0.04300000      -0.07510000       0.04840000
C        0.81750000      -0.68180000      -1.02840000
C        0.89820000      -0.45630000      -2.53320000
O        1.08420000      -1.87700000      -2.74610000
C        0.96170000      -2.16900000      -1.33840000
H       -0.38530000       1.97670000       0.78120000
H       -0.48500000       1.86990000      -1.00580000
H        2.24040000      -0.32720000       0.74340000
H       -0.72400000      -0.65400000       0.65890000
H       -0.01760000      -0.08880000      -3.01490000
H        1.75410000       0.13310000      -2.88120000
H        1.85520000      -2.66660000      -0.93860000
H        0.08050000      -2.78850000      -1.12280000
