15
Properties=species:S:1:pos:R:3 gdb_91617=T pbc="F F F"
O       -0.04860000       1.43400000      -0.02860000
C        0.03720000       0.02960000       0.02980000
C        0.58320000      -0.55710000       1.37260000
C       -0.65050000      -1.34630000       1.83830000
O       -1.18870000      -1.85260000       0.63240000
C       -1.39850000      -0.56820000       0.02980000
C       -2.17250000       0.14080000       1.15110000
O       -3.03340000       0.96160000       1.13100000
O       -1.64080000      -0.40150000       2.29760000
H        0.84070000       1.79900000      -0.05830000
H        0.58970000      -0.37710000      -0.82570000
H        1.43410000      -1.22460000       1.22070000
H        0.85570000       0.23180000       2.07590000
H       -0.52910000      -2.12910000       2.58350000
H       -1.91240000      -0.63940000      -0.92350000
