17
Properties=species:S:1:pos:R:3 gdb_11343=T pbc="F F F"
C       -0.05960000       1.43680000      -0.09130000
N        0.03510000      -0.00250000       0.03280000
C        0.65240000      -0.61840000       1.06260000
C        1.27440000      -0.04930000       2.13100000
C        1.81260000      -1.07040000       3.01670000
O        2.42360000      -0.91980000       4.05550000
C        1.46990000      -2.44650000       2.40070000
C        0.70080000      -2.13320000       1.10570000
H        0.93470000       1.89740000      -0.14190000
H       -0.60260000       1.68440000      -1.00510000
H       -0.59420000       1.87460000       0.76060000
H       -0.37890000      -0.57220000      -0.68430000
H        1.37600000       1.00800000       2.33050000
H        2.39330000      -3.00440000       2.22250000
H        0.88030000      -3.02720000       3.11550000
H       -0.31490000      -2.54710000       1.10380000
H        1.19920000      -2.52400000       0.21020000
