19
Properties=species:S:1:pos:R:3 gdb_117119=T pbc="F F F"
C        0.21530000       0.98710000       0.84870000
O       -0.04120000       0.02050000      -0.14390000
C       -0.83180000      -1.03080000       0.31970000
C       -1.00570000      -2.07300000      -0.77650000
O       -0.38160000      -2.04870000      -1.80370000
C       -2.08390000      -3.15880000      -0.51950000
C       -1.90010000      -4.35900000      -1.46420000
C       -2.16460000      -3.56080000       0.88200000
C       -2.22410000      -3.91950000       2.02810000
H        0.84170000       1.75750000       0.39370000
H       -0.71230000       1.45330000       1.21720000
H        0.74830000       0.55590000       1.71070000
H       -0.38380000      -1.53560000       1.19380000
H       -1.82950000      -0.68950000       0.65200000
H       -3.03130000      -2.65690000      -0.77690000
H       -0.97750000      -4.89430000      -1.22690000
H       -2.73910000      -5.05080000      -1.36280000
H       -1.83540000      -4.00960000      -2.49560000
H       -2.28020000      -4.23180000       3.04170000
