14
Properties=species:S:1:pos:R:3 gdb_125823=T pbc="F F F"
C       -0.10670000       1.46730000       0.25270000
C       -0.02200000      -0.01570000       0.11320000
N       -0.17870000      -0.60920000      -1.04550000
O       -0.03480000      -1.97720000      -0.81100000
C        0.21860000      -2.17860000       0.48880000
C        0.23320000      -0.98230000       1.13180000
O        0.48090000      -0.69120000       2.44750000
C       -0.29500000      -1.30480000       3.39380000
O       -0.09750000      -1.16160000       4.55640000
H        0.83300000       1.87440000       0.63840000
H       -0.31910000       1.92040000      -0.71690000
H       -0.89630000       1.74820000       0.95680000
H        0.37480000      -3.19780000       0.80460000
H       -1.09080000      -1.91960000       2.93660000
