19
Properties=species:S:1:pos:R:3 gdb_81358=T pbc="F F F"
O       -0.02860000       1.40030000      -0.10480000
C        0.07120000      -0.00600000      -0.02030000
C        0.13920000      -0.59110000       1.42480000
C       -1.38700000      -0.29570000       1.50930000
C       -1.34130000      -0.65320000      -0.00870000
C       -1.00900000      -2.14350000       0.04900000
O       -0.50650000      -2.60920000      -1.20290000
C        0.13610000      -2.10610000       1.15250000
O        1.35270000      -2.62620000       0.67480000
H        0.83440000       1.76830000       0.10940000
H        0.79410000      -0.39120000      -0.74760000
H        0.85570000      -0.22460000       2.16100000
H       -1.99600000      -0.92400000       2.16720000
H       -1.60400000       0.75730000       1.67360000
H       -2.11040000      -0.33960000      -0.71370000
H       -1.87070000      -2.74510000       0.35570000
H       -0.67590000      -3.55390000      -1.26480000
H       -0.14600000      -2.66700000       2.05140000
H        1.23750000      -2.71590000      -0.28300000
