19
Properties=species:S:1:pos:R:3 gdb_30827=T pbc="F F F"
C        0.24470000       1.59030000      -0.19200000
C       -0.04850000       0.09890000       0.05850000
C        0.62390000      -0.46760000       1.26480000
C        0.10850000      -0.86990000       2.47550000
O       -1.22610000      -0.80680000       2.78250000
C        1.17130000      -1.34230000       3.30050000
C        2.33140000      -1.20480000       2.56480000
N        3.69050000      -1.45100000       2.85940000
N        1.99540000      -0.67950000       1.34900000
H        1.31550000       1.76900000      -0.34100000
H       -0.27850000       1.94930000      -1.08460000
H       -0.07460000       2.19590000       0.66140000
H       -1.12600000      -0.04180000       0.18950000
H        0.22840000      -0.47570000      -0.83740000
H       -1.36600000      -1.26520000       3.61510000
H        1.09230000      -1.75630000       4.29530000
H        3.84210000      -1.45550000       3.86080000
H        4.00560000      -2.34880000       2.50100000
H        2.67430000      -0.39020000       0.66650000
