17
Properties=species:S:1:pos:R:3 gdb_61197=T pbc="F F F"
O        0.23390000       1.41240000      -0.02670000
C        0.05340000       0.01070000       0.05620000
C        0.60050000      -0.70350000      -1.20140000
C        0.04870000      -0.12210000      -2.41770000
C       -0.42890000       0.42450000      -3.37740000
C        0.83640000      -0.43130000       1.31240000
O        2.18130000       0.00720000       1.22280000
C        0.17550000       0.03480000       2.53750000
C       -0.36410000       0.41230000       3.54250000
H       -0.03770000       1.69100000      -0.91030000
H       -1.00880000      -0.24160000       0.18450000
H        1.69250000      -0.61360000      -1.19770000
H        0.35970000      -1.77210000      -1.14700000
H       -0.83930000       0.87320000      -4.24830000
H        0.87660000      -1.52720000       1.32790000
H        2.12660000       0.95210000       1.02350000
H       -0.83670000       0.74780000       4.43240000
