15
Properties=species:S:1:pos:R:3 gdb_65897=T pbc="F F F"
O       -0.00720000       1.45900000      -0.08140000
C        0.00930000       0.05120000      -0.00260000
C        0.14320000      -0.56270000       1.43100000
O       -1.16580000      -1.14670000       1.35070000
C       -1.43140000      -0.52210000       0.08460000
C        0.87590000      -0.55230000      -1.00030000
C        1.62070000      -1.04750000      -1.81350000
C        2.50890000      -1.61350000      -2.79830000
O        2.62070000      -2.79770000      -3.01420000
H        0.89480000       1.76990000      -0.21610000
H        0.92670000      -1.31310000       1.57520000
H        0.21270000       0.21930000       2.19730000
H       -2.17250000       0.28270000       0.15430000
H       -1.71920000      -1.24190000      -0.68670000
H        3.09940000      -0.86170000      -3.35990000
