19
Properties=species:S:1:pos:R:3 gdb_112954=T pbc="F F F"
N       -0.14820000       1.25910000      -0.28380000
C       -0.06650000      -0.12590000      -0.18540000
O        0.98930000      -0.73140000      -0.15950000
N       -1.28520000      -0.75290000      -0.08870000
C       -2.54010000      -0.24970000       0.49290000
C       -2.89040000      -1.70800000       0.90180000
C       -4.02800000      -2.33190000       0.11700000
O       -4.07220000      -3.70890000       0.45250000
C       -1.46500000      -2.11590000       0.42970000
H        0.71940000       1.67560000      -0.58670000
H       -0.96810000       1.64820000      -0.72490000
H       -2.38990000       0.44070000       1.33100000
H       -3.22230000       0.21740000      -0.23000000
H       -3.06420000      -1.84920000       1.96970000
H       -4.97440000      -1.82460000       0.36820000
H       -3.85190000      -2.18540000      -0.96170000
H       -4.73990000      -4.13460000      -0.09290000
H       -1.42640000      -2.89980000      -0.33190000
H       -0.75900000      -2.36390000       1.22800000
