17
Properties=species:S:1:pos:R:3 gdb_103051=T pbc="F F F"
C        0.24830000       1.20490000      -0.36740000
N       -0.17510000      -0.08610000       0.17470000
C        0.62030000      -0.57640000       1.25410000
C        0.54810000       0.13540000       2.51670000
N        0.45310000       0.74110000       3.49910000
C        0.87650000      -2.07960000       1.41320000
C        1.02760000      -2.67830000       0.01680000
O        2.07450000      -1.71890000      -0.31600000
C        2.00090000      -1.17810000       0.98500000
H        1.24650000       1.09470000      -0.80000000
H       -0.43740000       1.49230000      -1.16850000
H        0.27490000       2.01540000       0.37710000
H       -1.15420000      -0.07040000       0.43770000
H        0.68360000      -2.60560000       2.33740000
H        1.43750000      -3.69250000       0.02960000
H        0.17260000      -2.60300000      -0.65820000
H        2.90680000      -0.82270000       1.46150000
