17
Properties=species:S:1:pos:R:3 gdb_54554=T pbc="F F F"
C        0.72850000       0.28860000       0.85060000
C       -0.30060000       0.31160000      -0.25780000
O       -0.33220000       1.15500000      -1.12560000
C       -1.34000000      -0.76990000      -0.23800000
N       -2.16980000      -1.14000000      -1.42110000
C       -2.72620000      -1.98610000      -0.31920000
C       -1.30840000      -2.24250000       0.28690000
N       -1.65580000      -1.83460000       1.68800000
C       -2.49890000      -0.94510000       0.82940000
H        1.48620000      -0.46840000       0.61190000
H        1.21540000       1.26210000       0.92520000
H        0.27460000      -0.00970000       1.79980000
H       -2.80390000      -0.37460000      -1.65990000
H       -3.54660000      -2.69320000      -0.45580000
H       -0.58720000      -3.02050000       0.03750000
H       -2.23540000      -2.55180000       2.13170000
H       -3.16980000      -0.17840000       1.22220000
