18
Properties=species:S:1:pos:R:3 gdb_97078=T pbc="F F F"
C       -0.06390000       1.44560000       0.01820000
N       -0.02180000      -0.00490000       0.11290000
C       -1.08750000      -0.66920000       0.06970000
C       -1.19560000      -2.17820000       0.12700000
C       -2.66130000      -2.40590000       0.51290000
C       -3.34500000      -1.16660000      -0.11150000
O       -2.35250000      -0.12500000      -0.02880000
C       -3.76100000      -1.37770000      -1.49790000
C       -4.10590000      -1.56780000      -2.63300000
H        0.67520000       1.77270000      -0.72110000
H       -1.04320000       1.85390000      -0.25470000
H        0.23850000       1.87870000       0.97930000
H       -0.98190000      -2.59100000      -0.86500000
H       -0.47240000      -2.59650000       0.82670000
H       -3.08320000      -3.33960000       0.14080000
H       -2.78710000      -2.37190000       1.59890000
H       -4.20170000      -0.82800000       0.47880000
H       -4.41220000      -1.72560000      -3.63790000
