16
Properties=species:S:1:pos:R:3 gdb_81835=T pbc="F F F"
O       -0.17460000       1.43930000       0.11680000
C       -0.04200000       0.04930000       0.02340000
C       -1.36950000      -0.68950000       0.09430000
C       -2.24110000      -0.25950000      -1.06960000
C       -1.16270000      -1.25060000      -1.32260000
O       -1.46340000      -2.47310000      -1.87310000
C        0.21520000      -0.56990000      -1.42620000
C        0.46770000       0.36470000      -2.50970000
N        0.67460000       1.14350000      -3.33940000
H        0.66280000       1.85420000      -0.11840000
H        0.70270000      -0.33820000       0.72970000
H       -1.77910000      -1.15700000       0.98000000
H       -3.23120000      -0.70220000      -1.06550000
H       -2.18820000       0.75480000      -1.45070000
H       -0.83890000      -3.12940000      -1.54290000
H        1.02690000      -1.30290000      -1.38280000
