19
Properties=species:S:1:pos:R:3 gdb_95150=T pbc="F F F"
C       -0.04300000       1.53380000      -0.06190000
C        0.00760000       0.01770000       0.03270000
O        0.62820000      -0.45530000      -1.16660000
C        0.94470000      -1.84190000      -1.17450000
C        1.62920000      -2.25100000       0.14260000
O        0.68340000      -1.95470000       1.17820000
C        0.77390000      -0.52630000       1.26250000
C        2.27130000      -0.27840000       1.13050000
C        2.78150000      -1.30790000       0.46300000
H        0.96560000       1.95320000      -0.11800000
H       -0.58550000       1.83560000      -0.96160000
H       -0.55380000       1.95720000       0.80880000
H       -1.01300000      -0.39290000       0.10140000
H        0.03500000      -2.45120000      -1.29200000
H        1.59150000      -2.00120000      -2.04370000
H        1.86270000      -3.31910000       0.16490000
H        0.31500000      -0.19640000       2.19890000
H        2.77910000       0.61690000       1.46210000
H        3.79820000      -1.44290000       0.11910000
