15
Properties=species:S:1:pos:R:3 gdb_20712=T pbc="F F F"
C       -0.22770000       1.47920000       0.06620000
C        0.09340000       0.02320000       0.00080000
N        0.09080000      -0.64460000      -1.16430000
N        0.42870000      -1.87690000      -0.71930000
C        0.71970000      -3.30240000      -0.95900000
C        0.94590000      -3.38500000       0.61160000
C        0.60700000      -1.89900000       0.59380000
N        0.40900000      -0.71160000       1.13080000
H        0.61180000       2.04160000       0.48680000
H       -0.44630000       1.85990000      -0.93270000
H       -1.09290000       1.65560000       0.71280000
H       -0.13000000      -3.87030000      -1.34450000
H        1.60540000      -3.47750000      -1.57370000
H        0.23890000      -4.02890000       1.13830000
H        1.96510000      -3.63780000       0.91010000
