18
Properties=species:S:1:pos:R:3 gdb_51049=T pbc="F F F"
O       -0.19720000       0.06690000      -0.64100000
C       -0.15770000       1.05920000       0.05280000
N        0.97170000       1.78310000       0.31430000
C        2.28220000       1.26790000      -0.00920000
C        2.55610000       0.88070000      -1.49680000
C        3.90860000       1.63630000      -1.43230000
C        3.42170000       2.33630000      -0.13630000
C        2.70650000       0.16600000       0.95080000
O        2.10370000      -0.14250000       1.94380000
H       -1.05560000       1.51280000       0.51670000
H        0.91710000       2.44150000       1.07790000
H        2.56600000      -0.18510000      -1.72770000
H        1.83010000       1.36870000      -2.14740000
H        4.75560000       0.96960000      -1.25040000
H        4.15810000       2.28300000      -2.27510000
H        2.98370000       3.31760000      -0.33370000
H        4.12190000       2.42140000       0.69880000
H        3.66270000      -0.33410000       0.67320000
