17
Properties=species:S:1:pos:R:3 gdb_46208=T pbc="F F F"
O        0.08930000       0.02670000      -0.31450000
C        0.03790000       1.20360000      -0.08850000
C       -1.09510000       2.17370000       0.31020000
C       -0.01270000       3.28440000       0.51760000
C        1.05390000       2.30980000      -0.01360000
C        2.52760000       2.28480000       0.35590000
C        3.18280000       1.09060000      -0.34240000
O        2.69730000       1.54970000      -1.64080000
C        2.12090000       2.68660000      -1.02790000
H       -1.79700000       2.36840000      -0.50580000
H       -1.66340000       1.87330000       1.19400000
H       -0.15840000       4.19050000      -0.07520000
H        0.12350000       3.56770000       1.56430000
H        2.91930000       2.85720000       1.18650000
H        4.27650000       1.11780000      -0.31790000
H        2.80860000       0.09460000      -0.09530000
H        2.10610000       3.62690000      -1.56870000
