18
Properties=species:S:1:pos:R:3 gdb_60683=T pbc="F F F"
C        0.21210000       1.60500000       0.14110000
C        0.02140000       0.09770000      -0.04110000
C        0.33770000      -0.65010000       1.26070000
O        0.79370000      -0.12340000       2.23970000
C       -1.43040000      -0.24290000      -0.38770000
O       -1.84110000      -1.37470000      -0.46450000
C        0.93090000      -0.41680000      -1.18930000
C        1.99970000      -1.43550000      -0.99060000
N        0.80030000      -1.74700000      -1.77700000
H        1.25260000       1.83460000       0.37860000
H       -0.06150000       2.13780000      -0.77510000
H       -0.40390000       1.98300000       0.96110000
H        0.09180000      -1.73170000       1.24110000
H       -2.10260000       0.62700000      -0.55200000
H        1.10570000       0.36400000      -1.92730000
H        2.92180000      -1.36600000      -1.56080000
H        2.12040000      -1.88100000      -0.00700000
H        0.13020000      -2.30350000      -1.25080000
