21
Properties=species:S:1:pos:R:3 gdb_113359=T pbc="F F F"
C        0.58150000       1.34040000       0.29670000
C       -0.15850000       0.13300000      -0.29470000
C        0.68350000      -0.57990000      -1.32580000
O        1.70600000      -1.45760000      -0.86850000
C        0.61470000      -2.03840000      -1.61520000
C       -0.29560000      -3.02040000      -0.91350000
C        0.45690000      -4.27450000      -0.44770000
C        1.04050000      -2.40290000      -3.01010000
O        0.50980000      -3.24320000      -3.69070000
H        1.50920000       1.02460000       0.78300000
H        0.83930000       2.06870000      -0.47970000
H       -0.03720000       1.84970000       1.04090000
H       -0.43060000      -0.55970000       0.50570000
H       -1.09050000       0.46000000      -0.77300000
H        1.00800000       0.06470000      -2.14880000
H       -0.78360000      -2.54170000      -0.06150000
H       -1.07950000      -3.30070000      -1.62500000
H       -0.22020000      -4.95810000       0.07210000
H        0.88930000      -4.81150000      -1.29660000
H        1.26600000      -4.00640000       0.23780000
H        1.91250000      -1.81050000      -3.36800000
