20
Properties=species:S:1:pos:R:3 gdb_91933=T pbc="F F F"
C       -0.66770000       1.44620000       0.14380000
C        0.00060000       0.07410000       0.07810000
O       -0.98390000      -0.96530000       0.14800000
C        0.87950000      -0.14140000      -1.14800000
C        2.24720000       0.43970000      -1.16100000
N        2.04480000      -0.97740000      -0.81550000
C        1.97990000      -1.21690000       0.63960000
C        0.95830000      -0.24650000       1.26540000
O        1.65120000       0.88650000       1.77630000
H        0.07140000       2.25080000       0.16120000
H       -1.30860000       1.59850000      -0.73170000
H       -1.30420000       1.51900000       1.03220000
H       -1.43660000      -1.00760000      -0.70100000
H        0.37090000      -0.35550000      -2.08770000
H        2.74190000       0.60020000      -2.11480000
H        2.52170000       1.13100000      -0.37100000
H        1.64540000      -2.24740000       0.78670000
H        2.96470000      -1.09870000       1.09910000
H        0.37510000      -0.73140000       2.05710000
H        1.01510000       1.44950000       2.22850000
