16
Properties=species:S:1:pos:R:3 gdb_49702=T pbc="F F F"
O        0.36270000       0.15540000      -0.68260000
C        0.24580000       1.28070000      -0.27240000
N        1.20770000       1.94870000       0.48070000
C        2.61940000       1.94570000       0.28830000
C        2.99540000       2.07530000      -1.19670000
C        2.15430000       3.39100000      -1.28920000
C        1.78010000       3.24800000       0.19530000
C        1.68840000       4.32160000       1.20490000
O        1.87870000       5.48710000       0.95720000
H       -0.67280000       1.88700000      -0.38710000
H        3.25520000       1.61920000       1.10340000
H        4.06190000       2.25380000      -1.33990000
H        2.68090000       1.23370000      -1.81640000
H        2.77010000       4.27510000      -1.45630000
H        1.31520000       3.40600000      -1.98860000
H        1.44440000       3.95930000       2.22690000
