15
Properties=species:S:1:pos:R:3 gdb_52545=T pbc="F F F"
C        0.13200000       1.43040000       0.13750000
C        0.05290000      -0.01250000      -0.01400000
C       -0.02700000      -1.20880000      -0.14130000
C       -0.18630000      -2.64470000      -0.31330000
O       -1.22010000      -3.16020000      -0.65800000
N        1.00360000      -3.32870000      -0.04930000
C        1.17400000      -4.72670000       0.02200000
N        2.51550000      -5.06420000       0.13490000
O        0.27690000      -5.52870000       0.04380000
H        0.79310000       1.86670000      -0.61900000
H       -0.85510000       1.89130000       0.02920000
H        0.52710000       1.70140000       1.12240000
H        1.78750000      -2.75020000       0.21250000
H        3.19640000      -4.49380000      -0.34380000
H        2.67270000      -6.05740000       0.05040000
