22
Properties=species:S:1:pos:R:3 gdb_57468=T pbc="F F F"
C        0.05350000       1.57020000       0.10960000
C        0.00490000       0.03330000       0.05560000
C        0.64420000      -0.56200000       1.32290000
C       -1.45580000      -0.43210000      -0.07550000
C        0.78990000      -0.48860000      -1.16590000
N        0.39090000       0.04570000      -2.50280000
C        1.79190000       0.36200000      -2.88900000
C        2.20730000       0.04870000      -1.44360000
O        3.20320000       0.19020000      -0.79800000
H        1.07650000       1.93110000       0.25810000
H       -0.33370000       2.00070000      -0.81800000
H       -0.55340000       1.94220000       0.94140000
H        0.12620000      -0.20120000       2.21780000
H        0.58380000      -1.65650000       1.32260000
H        1.69880000      -0.28250000       1.40080000
H       -1.91120000      -0.03170000      -0.98680000
H       -1.52440000      -1.52580000      -0.10930000
H       -2.04880000      -0.08740000       0.77840000
H        0.81650000      -1.59000000      -1.12660000
H       -0.05200000      -0.64020000      -3.10190000
H        2.25800000      -0.32350000      -3.61020000
H        1.95200000       1.39090000      -3.22940000
