20
Properties=species:S:1:pos:R:3 gdb_13896=T pbc="F F F"
C        0.04560000       1.34900000      -0.32520000
C        0.06160000      -0.11880000       0.12540000
C        0.73730000      -0.27890000       1.49590000
C       -1.34840000      -0.68310000       0.14230000
C       -2.02720000      -1.13480000      -1.13800000
O       -1.31570000      -1.12040000      -2.33750000
C       -1.63050000      -2.15690000      -0.10600000
O       -0.59690000      -3.00290000      -0.54230000
H        1.05870000       1.76480000      -0.34840000
H       -0.38510000       1.43680000      -1.32600000
H       -0.55050000       1.96400000       0.35960000
H        0.64240000      -0.68290000      -0.61230000
H        0.19220000       0.27440000       2.26970000
H        0.77430000      -1.32770000       1.81300000
H        1.76420000       0.10090000       1.47700000
H       -2.00480000      -0.21910000       0.87720000
H       -3.08060000      -0.90920000      -1.27830000
H       -0.74750000      -1.90310000      -2.32190000
H       -2.39660000      -2.65720000       0.48360000
H        0.08320000      -3.04420000       0.13750000
