15
Properties=species:S:1:pos:R:3 gdb_31905=T pbc="F F F"
C       -0.07620000       1.43470000       0.01150000
O       -0.00730000       0.01860000       0.00310000
C       -1.16890000      -0.65830000       0.01080000
C       -1.37430000      -2.01990000       0.01030000
N       -2.71460000      -2.29280000       0.01930000
C       -3.33320000      -1.12710000       0.02510000
N       -2.41550000      -0.08750000       0.02010000
C       -4.72160000      -0.88270000       0.03530000
C       -5.90100000      -0.63590000       0.04390000
H        0.95390000       1.79180000       0.00530000
H       -0.59180000       1.81730000      -0.87960000
H       -0.57790000       1.80730000       0.91470000
H       -0.62510000      -2.79490000       0.00410000
H       -2.64370000       0.89160000       0.02290000
H       -6.94410000      -0.43820000       0.05160000
