13
Properties=species:S:1:pos:R:3 gdb_10798=T pbc="F F F"
O        0.03030000       0.04560000       0.57460000
C       -0.01000000       1.13640000       0.06900000
C       -1.30770000       1.82760000      -0.32800000
N       -1.07350000       3.24730000      -0.54610000
C       -0.02010000       3.69770000      -1.31210000
O       -0.00660000       4.73430000      -1.91880000
O        1.05390000       2.85460000      -1.32960000
C        1.23140000       1.96500000      -0.22740000
H       -1.70000000       1.31580000      -1.22120000
H       -2.03690000       1.68700000       0.47400000
H       -1.88610000       3.84040000      -0.62710000
H        1.49460000       2.52930000       0.67900000
H        2.06570000       1.30890000      -0.47900000
