16
Properties=species:S:1:pos:R:3 gdb_34633=T pbc="F F F"
N        0.08140000      -1.11880000      -0.15880000
C        0.00930000       0.03510000      -0.09090000
C       -0.02550000       1.45130000      -0.01320000
C       -1.10260000       2.22880000       0.13770000
C       -0.67180000       3.66510000       0.16880000
O        0.74540000       3.63670000       0.02230000
C        1.19520000       2.30280000      -0.09350000
C        2.52050000       1.93740000       0.51550000
C        2.36640000       2.01630000      -0.99190000
H       -2.12860000       1.89900000       0.22530000
H       -1.12430000       4.25130000      -0.64610000
H       -0.94410000       4.15910000       1.11460000
H        3.05270000       2.74370000       1.00740000
H        2.62910000       0.96150000       0.97630000
H        2.36940000       1.09440000      -1.56340000
H        2.79680000       2.87470000      -1.49510000
