20
Properties=species:S:1:pos:R:3 gdb_110685=T pbc="F F F"
C       -0.24530000       1.30680000       0.11690000
O        0.36720000       0.06240000      -0.14640000
C        0.86200000      -0.56030000       0.99970000
C       -0.07480000      -1.44650000       1.86070000
C       -0.14940000      -2.50090000       0.71040000
C       -0.21140000      -3.87520000       1.36570000
C        0.77140000      -3.59160000       2.53520000
N        1.18110000      -2.17980000       2.32870000
C        1.32960000      -2.00670000       0.81650000
H        0.44980000       2.00280000       0.61080000
H       -0.54600000       1.72990000      -0.84430000
H       -1.13650000       1.20070000       0.75310000
H        1.53610000       0.09060000       1.57060000
H       -0.85420000      -1.16000000       2.57060000
H       -0.73430000      -2.30410000      -0.18730000
H       -1.22000000      -4.13260000       1.70420000
H        0.13090000      -4.67290000       0.69910000
H        0.30830000      -3.68890000       3.52140000
H        1.66040000      -4.22880000       2.51630000
H        2.20970000      -2.37580000       0.28540000
