15
Properties=species:S:1:pos:R:3 gdb_27976=T pbc="F F F"
C        0.00310000       1.51760000      -0.01260000
C       -0.04800000       0.03130000       0.00370000
C       -1.08460000      -0.81560000      -0.11530000
N       -0.59670000      -2.13560000      -0.03270000
C       -1.39880000      -3.27070000      -0.11800000
O       -1.02300000      -4.40740000      -0.05280000
C        0.82070000      -2.10800000       0.14700000
O        1.58710000      -3.02920000       0.25830000
N        1.10040000      -0.75020000       0.16180000
H        0.63360000       1.88880000      -0.82940000
H       -0.99990000       1.92820000      -0.14620000
H        0.41120000       1.91590000       0.92390000
H       -2.13360000      -0.61480000      -0.25140000
H       -2.45950000      -2.97980000      -0.25760000
H        2.04140000      -0.41430000       0.27510000
