17
Properties=species:S:1:pos:R:3 gdb_23525=T pbc="F F F"
C        0.05090000       1.45920000      -0.22470000
N        0.02540000       0.01140000      -0.00370000
C       -1.14380000      -0.48670000       0.85040000
C       -0.78870000      -1.97230000       0.90860000
C        0.52940000      -1.95670000       1.13780000
C        0.84580000      -0.46110000       1.19970000
C       -0.33010000       0.02110000       2.05620000
N       -0.43530000       0.73960000       3.08580000
O       -1.79180000       1.05560000       3.35260000
H        1.01250000       1.72190000      -0.67640000
H       -0.73520000       1.71440000      -0.94200000
H       -0.08820000       2.07020000       0.68120000
H       -2.15040000      -0.15580000       0.60870000
H       -1.47460000      -2.79850000       0.79820000
H        1.23200000      -2.76590000       1.26690000
H        1.86840000      -0.10710000       1.30900000
H       -1.71470000       1.58390000       4.15400000
