19
Properties=species:S:1:pos:R:3 gdb_51432=T pbc="F F F"
O       -0.07020000       0.01260000       0.03080000
C       -0.04500000       1.20670000       0.02360000
O        1.10040000       1.91060000       0.00920000
C        1.02030000       3.33500000       0.04570000
C        1.66180000       3.96170000       1.31640000
C        3.03490000       3.68140000       0.63100000
C        2.22780000       4.00080000      -0.66520000
C        1.88880000       5.49120000      -0.47690000
C        1.45570000       5.46080000       1.03230000
H       -0.94630000       1.85050000       0.01890000
H        0.01090000       3.65840000      -0.23620000
H        1.41910000       3.58900000       2.31150000
H        3.87100000       4.33900000       0.88340000
H        3.33340000       2.63610000       0.69500000
H        2.54930000       3.66630000      -1.65100000
H        2.75690000       6.13110000      -0.65380000
H        1.08480000       5.82700000      -1.13830000
H        0.41860000       5.77770000       1.17760000
H        2.08820000       6.08730000       1.66630000
