17
Properties=species:S:1:pos:R:3 gdb_73186=T pbc="F F F"
O       -0.15480000       1.52840000       0.13940000
C       -0.03560000       0.15140000      -0.00500000
C        0.43500000      -0.43210000      -1.36420000
C       -0.83050000      -1.35080000      -1.39920000
C       -1.26430000      -0.79630000      -0.02460000
O       -0.73180000      -1.57150000       1.07230000
C        0.39280000      -0.66760000       1.25560000
C        1.68810000      -1.31790000       1.28830000
C        2.77550000      -1.83220000       1.29890000
H        0.66580000       1.93950000      -0.15410000
H        0.43320000       0.32940000      -2.14780000
H        1.40430000      -0.93420000      -1.34940000
H       -1.52110000      -1.10630000      -2.20990000
H       -0.64500000      -2.42590000      -1.39390000
H       -2.29810000      -0.48640000       0.14010000
H        0.24690000      -0.05960000       2.15860000
H        3.73140000      -2.29480000       1.32190000
