25
Properties=species:S:1:pos:R:3 gdb_60122=T pbc="F F F"
C        0.28790000       1.60160000       0.07390000
C        0.07560000       0.08300000      -0.00320000
C        0.66280000      -0.47900000      -1.30430000
C        0.66070000      -0.65310000       1.21930000
C       -0.01050000      -0.29810000       2.53230000
C        0.57420000      -0.70550000       3.87850000
C        1.86740000      -1.48330000       4.00340000
C        0.57150000       0.74230000       3.47140000
O        1.81740000       1.31270000       3.18400000
H        1.35870000       1.84380000       0.08000000
H       -0.15200000       2.10780000      -0.79170000
H       -0.17080000       2.02950000       0.97110000
H       -1.00850000      -0.10210000      -0.01560000
H        1.74810000      -0.32500000      -1.34270000
H        0.47770000      -1.55460000      -1.39370000
H        0.22800000       0.01090000      -2.18200000
H        0.56880000      -1.73420000       1.04970000
H        1.73440000      -0.44220000       1.27940000
H       -1.09810000      -0.31630000       2.48260000
H       -0.16600000      -0.96480000       4.63150000
H        2.64700000      -1.07600000       3.35830000
H        2.23990000      -1.43930000       5.03230000
H        1.72160000      -2.53870000       3.74820000
H       -0.11950000       1.41370000       3.98200000
H        1.69750000       1.92980000       2.45420000
