18
Properties=species:S:1:pos:R:3 gdb_109520=T pbc="F F F"
C       -0.01880000       1.47920000       0.32810000
C       -0.03080000       0.05550000      -0.23960000
C       -1.38700000      -0.60430000      -0.11870000
C       -1.54950000      -2.11060000      -0.12490000
C       -0.42010000      -2.98630000      -0.21670000
C        0.51800000      -3.73270000      -0.30690000
C       -1.81970000      -1.30370000       1.16020000
C       -0.92250000      -1.40320000       2.27530000
N       -0.21120000      -1.46840000       3.18550000
H        0.96420000       1.94000000       0.19590000
H       -0.75620000       2.11540000      -0.17360000
H       -0.24650000       1.47780000       1.39850000
H        0.24950000       0.07100000      -1.29990000
H        0.72140000      -0.55650000       0.26700000
H       -2.19530000      -0.06720000      -0.60850000
H       -2.45300000      -2.48820000      -0.59500000
H        1.34850000      -4.39120000      -0.37310000
H       -2.86240000      -1.21750000       1.44680000
