22
Properties=species:S:1:pos:R:3 gdb_89071=T pbc="F F F"
O       -0.12030000       1.47690000       0.01340000
C       -0.04700000       0.08040000      -0.02470000
C       -0.59180000      -0.72900000       1.12610000
C       -1.33840000      -0.66530000      -0.19620000
C       -2.65650000       0.07300000      -0.29320000
C       -3.83910000      -0.78010000       0.17020000
N       -5.08570000      -0.02550000       0.09630000
C       -5.80130000      -0.08310000      -1.17370000
C       -6.31380000      -0.80610000       0.02300000
H        0.50580000       1.78830000       0.67500000
H        0.82730000      -0.31100000      -0.54550000
H       -0.08760000      -1.64510000       1.41460000
H       -1.01900000      -0.16510000       1.94980000
H       -1.27340000      -1.55760000      -0.81490000
H       -2.61580000       0.98910000       0.30180000
H       -2.82540000       0.38820000      -1.33110000
H       -3.88720000      -1.71120000      -0.42750000
H       -3.69100000      -1.08210000       1.21420000
H       -6.26390000       0.84280000      -1.50340000
H       -5.37540000      -0.68940000      -1.97260000
H       -6.23000000      -1.89230000       0.01860000
H       -7.15770000      -0.41800000       0.58660000
