16
Properties=species:S:1:pos:R:3 gdb_72786=T pbc="F F F"
O       -0.12870000       1.49720000       0.20000000
C        0.04130000       0.12440000      -0.03720000
C       -1.33480000      -0.63190000      -0.23390000
C       -1.11860000      -0.61890000      -1.79150000
C        0.33490000      -0.38840000      -1.43720000
C        1.39390000      -1.20950000      -1.36350000
N        1.99490000      -1.12750000      -0.08910000
C        1.23890000      -0.37220000       0.78470000
O        1.55030000      -0.01050000       1.90000000
H        0.22010000       1.65260000       1.08990000
H       -1.34000000      -1.64360000       0.17510000
H       -2.17850000      -0.05280000       0.14690000
H       -1.36790000      -1.52670000      -2.34380000
H       -1.60610000       0.24090000      -2.25770000
H        1.70390000      -1.99600000      -2.03950000
H        2.92900000      -1.42860000       0.14060000
