18
Properties=species:S:1:pos:R:3 gdb_102747=T pbc="F F F"
O        0.09490000       1.30750000       0.25960000
C        0.02320000      -0.01030000      -0.22030000
C       -1.38000000      -0.60730000      -0.03090000
O       -1.63710000      -0.54810000       1.35980000
C       -2.76420000      -1.26480000       1.79500000
C       -3.33290000      -0.85240000       3.11230000
C       -4.10900000      -0.59090000       1.83750000
C       -2.39020000       0.13360000      -0.81730000
N       -3.17540000       0.69750000      -1.44970000
H       -0.21880000       1.28790000       1.17150000
H        0.27430000       0.01300000      -1.28430000
H        0.72970000      -0.68090000       0.29200000
H       -1.38160000      -1.65100000      -0.38220000
H       -2.71890000      -2.32590000       1.55170000
H       -3.66980000      -1.62730000       3.79090000
H       -2.86990000       0.00260000       3.59160000
H       -4.15810000       0.43280000       1.48780000
H       -4.98830000      -1.18760000       1.62280000
