22
Properties=species:S:1:pos:R:3 gdb_118203=T pbc="F F F"
C       -0.01570000       1.38900000       0.03750000
O       -0.13030000      -0.01040000      -0.03030000
C        0.65930000      -0.58090000      -1.05050000
C        0.44240000      -2.09350000      -1.06180000
C       -1.02530000      -2.44900000      -1.32690000
C        1.38450000      -2.75030000      -2.07960000
C        1.46690000      -4.26810000      -1.90760000
N        1.76510000      -4.95900000      -3.04670000
O        1.31430000      -4.82190000      -0.83600000
H        1.01920000       1.70600000       0.24480000
H       -0.33870000       1.87290000      -0.89850000
H       -0.65840000       1.73250000       0.85190000
H        0.38820000      -0.14500000      -2.03040000
H        1.72570000      -0.34870000      -0.88000000
H        0.71770000      -2.47800000      -0.07390000
H       -1.18310000      -3.52760000      -1.24520000
H       -1.67240000      -1.94810000      -0.60420000
H       -1.33150000      -2.13010000      -2.33160000
H        1.08700000      -2.49760000      -3.10560000
H        2.40580000      -2.36600000      -1.94950000
H        1.85370000      -4.51350000      -3.94230000
H        1.85710000      -5.95980000      -2.98850000
