16
Properties=species:S:1:pos:R:3 gdb_2487=T pbc="F F F"
C       -0.07290000       1.53680000       0.02170000
C       -0.02530000       0.03710000       0.00760000
C        0.39300000      -0.76220000      -1.24890000
C       -0.58160000      -1.79950000      -0.72880000
C       -0.51180000      -1.81130000       0.76370000
C        0.50770000      -0.78160000       1.20690000
N       -1.36620000      -0.79090000       0.06380000
H        0.94040000       1.95340000      -0.02200000
H       -0.63560000       1.91810000      -0.83630000
H       -0.55350000       1.90400000       0.93410000
H        0.01490000      -0.29040000      -2.16020000
H        1.44980000      -1.02230000      -1.37590000
H       -1.08510000      -2.58230000      -1.28510000
H       -0.96180000      -2.60320000       1.35220000
H        1.57160000      -1.04280000       1.23080000
H        0.21660000      -0.32440000       2.15690000
