20
Properties=species:S:1:pos:R:3 gdb_51795=T pbc="F F F"
O       -0.59520000       0.79760000       0.70370000
C        0.10370000       0.99990000      -0.25540000
C        1.37560000       1.81650000      -0.24910000
C        1.32630000       2.96530000      -1.27260000
C        0.26600000       4.05090000      -0.97010000
C        0.86600000       5.33070000      -1.59640000
N        2.33630000       5.18480000      -1.62450000
C        2.90790000       4.77770000      -0.33290000
C        2.62250000       3.76050000      -1.37880000
H       -0.16380000       0.58130000      -1.25560000
H        1.54980000       2.19180000       0.76350000
H        2.20200000       1.13950000      -0.51090000
H        1.12490000       2.53400000      -2.26300000
H       -0.71500000       3.80640000      -1.38520000
H        0.13060000       4.15830000       0.11070000
H        0.53600000       5.44330000      -2.63480000
H        0.58660000       6.24290000      -1.06050000
H        3.92920000       5.10820000      -0.16890000
H        2.28060000       4.80820000       0.55480000
H        3.44180000       3.32360000      -1.94410000
