21
Properties=species:S:1:pos:R:3 gdb_69662=T pbc="F F F"
C        0.13690000       1.60610000       0.30500000
C        0.05600000       0.13230000       0.02790000
C       -0.93860000      -0.76660000       0.69890000
C        0.54220000      -1.06800000       0.88960000
C        0.96640000      -1.76400000      -0.37010000
C        1.05480000      -2.88530000      -1.07810000
C        0.82650000      -2.54130000      -2.55410000
C        0.10140000      -1.15030000      -2.50250000
C        0.69740000      -0.54960000      -1.21910000
H        1.14420000       1.99340000       0.11370000
H       -0.55960000       2.16650000      -0.33110000
H       -0.11710000       1.83080000       1.34640000
H       -1.43090000      -0.33180000       1.56480000
H       -1.55750000      -1.46080000       0.13720000
H        0.99990000      -1.08190000       1.87120000
H        1.19680000      -3.89890000      -0.72190000
H        1.77100000      -2.47100000      -3.11390000
H        0.22470000      -3.30260000      -3.06290000
H        0.26020000      -0.55430000      -3.40590000
H       -0.97650000      -1.31280000      -2.38840000
H        1.63540000      -0.01670000      -1.43510000
