18
Properties=species:S:1:pos:R:3 gdb_83846=T pbc="F F F"
C       -0.21440000       1.51690000       0.01000000
C        0.02580000       0.02530000       0.02980000
C        1.37630000      -0.57010000      -0.23340000
O        2.44820000       0.32440000      -0.39700000
C        3.25780000       0.36790000       0.73630000
O        2.55730000       0.85720000       1.87720000
C        1.43850000       0.14270000       2.23740000
N        0.96520000       0.18860000       3.40940000
C        0.79830000      -0.66250000       1.16200000
H        0.67840000       2.06960000       0.30670000
H       -0.49330000       1.84490000      -0.99670000
H       -1.02660000       1.78470000       0.69240000
H       -0.80490000      -0.57300000      -0.33450000
H        1.46820000      -1.46810000      -0.83950000
H        3.66990000      -0.62580000       0.96810000
H        4.05930000       1.08200000       0.54390000
H        1.55350000       0.78010000       4.00020000
H        0.40470000      -1.60930000       1.50910000
