25
Properties=species:S:1:pos:R:3 gdb_60164=T pbc="F F F"
C        0.08160000       1.58250000      -0.06270000
C        0.04200000       0.05460000      -0.00060000
O        0.72690000      -0.42760000       1.15590000
C       -1.38650000      -0.49850000      -0.09410000
C       -1.47180000      -2.01970000      -0.10920000
C       -1.24180000      -2.83160000       1.19600000
C       -2.37270000      -3.80120000       0.75330000
C       -3.32740000      -4.35880000       1.79740000
C       -2.86990000      -2.69050000      -0.21520000
H        1.11150000       1.93870000       0.02650000
H       -0.33600000       1.95430000      -1.00420000
H       -0.50350000       2.02010000       0.75620000
H        0.62550000      -0.34790000      -0.83890000
H        0.25530000      -0.09980000       1.92970000
H       -1.97860000      -0.10420000       0.74690000
H       -1.85300000      -0.09920000      -1.00550000
H       -0.81930000      -2.41030000      -0.90000000
H       -0.24510000      -3.23590000       1.38140000
H       -1.54950000      -2.25410000       2.07620000
H       -1.94090000      -4.62390000       0.17100000
H       -3.77300000      -3.55290000       2.39240000
H       -4.14610000      -4.92040000       1.33290000
H       -2.81180000      -5.03530000       2.48870000
H       -3.64000000      -2.07210000       0.26210000
H       -3.22850000      -2.98580000      -1.20530000
