18
Properties=species:S:1:pos:R:3 gdb_41242=T pbc="F F F"
C       -0.02550000       1.50700000      -0.19950000
C        1.52070000       1.55270000       0.11100000
C        1.29270000       0.24680000       0.87840000
N        1.94530000      -1.05320000       1.15990000
C        0.74310000      -1.31010000       1.97500000
C       -0.66720000      -0.75790000       1.27440000
O       -0.74130000       0.25900000       2.30660000
C        0.67650000       0.16360000       2.35750000
C       -0.00530000      -0.02470000       0.11110000
H       -0.60860000       2.06300000       0.53560000
H       -0.32960000       1.79610000      -1.20640000
H        2.11670000       1.41730000      -0.79690000
H        1.91290000       2.40730000       0.66870000
H        2.05740000      -1.64010000       0.33360000
H        0.71000000      -2.16280000       2.65070000
H       -1.57520000      -1.35100000       1.17820000
H        1.17200000       0.65630000       3.19170000
H        0.14490000      -0.64040000      -0.77970000
