12
Properties=species:S:1:pos:R:3 gdb_21825=T pbc="F F F"
O       -0.28920000       0.05060000       0.00130000
C       -0.07930000       1.24470000       0.00820000
N        1.16080000       1.81450000       0.00050000
C        2.35660000       1.10610000      -0.01560000
C        2.59890000      -0.24890000      -0.02820000
N        3.95540000      -0.30380000      -0.04110000
N        4.51430000       0.91270000      -0.03650000
N        3.53810000       1.77900000      -0.02090000
H       -0.88010000       2.00630000       0.02130000
H        1.24900000       2.81990000       0.00740000
H        1.94960000      -1.10340000      -0.02890000
H        4.54970000      -1.11740000      -0.05290000
