14
Properties=species:S:1:pos:R:3 gdb_46658=T pbc="F F F"
O       -0.03630000      -0.01210000       0.07610000
C       -0.01510000       1.17600000       0.04010000
O       -1.13860000       1.94960000       0.04930000
C       -0.81330000       3.34170000       0.01150000
C        0.70660000       3.37970000       0.01370000
C        1.42240000       2.79720000       1.18780000
C        0.73900000       2.51590000       2.41560000
C        0.17490000       2.29050000       3.45290000
N        1.16830000       1.99300000      -0.05850000
H       -1.21880000       3.77680000      -0.90650000
H       -1.26640000       3.83250000       0.87810000
H        1.21460000       4.10280000      -0.61590000
H        2.47760000       3.03370000       1.29170000
H       -0.32160000       2.07620000       4.36760000
