25
Properties=species:S:1:pos:R:3 gdb_83362=T pbc="F F F"
C       -0.14860000       1.53370000      -0.02850000
C        0.05500000       0.01990000      -0.00120000
C        1.05360000      -0.57140000      -1.02600000
C        2.41420000      -0.04260000      -0.51670000
C        2.23700000      -0.06030000       1.03290000
C        0.78840000      -0.58070000       1.23620000
C        0.20220000      -0.28940000       2.60890000
C        0.79070000      -2.08450000       0.85690000
C        0.97120000      -2.07780000      -0.69450000
H        0.78560000       2.08940000       0.09340000
H       -0.59420000       1.84620000      -0.97920000
H       -0.82680000       1.85320000       0.77000000
H       -0.92720000      -0.45860000      -0.11400000
H        0.85430000      -0.33910000      -2.07510000
H        3.24410000      -0.66960000      -0.85620000
H        2.61150000       0.96930000      -0.88250000
H        2.96440000      -0.70560000       1.53540000
H        2.35620000       0.94070000       1.45960000
H        0.20130000       0.78380000       2.82890000
H       -0.83060000      -0.64880000       2.68510000
H        0.78070000      -0.78360000       3.39820000
H        1.58430000      -2.63190000       1.37570000
H       -0.15870000      -2.55010000       1.14210000
H        0.11410000      -2.54130000      -1.19280000
H        1.86450000      -2.61990000      -1.01930000
