19
Properties=species:S:1:pos:R:3 gdb_113035=T pbc="F F F"
O        0.06540000       1.45400000       0.11340000
C        0.07500000       0.03780000       0.01270000
C       -1.37440000      -0.44190000       0.01980000
C       -1.50240000      -1.97880000      -0.12580000
C       -2.67820000      -2.40520000       0.81290000
C       -2.79760000      -1.20840000       1.74820000
C       -2.10510000      -0.16070000       1.31260000
C       -3.93110000      -2.66550000       0.10340000
C       -4.96270000      -2.87190000      -0.47910000
H        0.97560000       1.76170000       0.14920000
H        0.56870000      -0.29330000      -0.91550000
H        0.61480000      -0.42040000       0.85760000
H       -1.88220000       0.07640000      -0.80580000
H       -1.66270000      -2.30080000      -1.15580000
H       -0.58320000      -2.45590000       0.23230000
H       -2.41210000      -3.31540000       1.36590000
H       -3.42930000      -1.23790000       2.62820000
H       -2.06190000       0.81150000       1.78870000
H       -5.87440000      -3.05440000      -0.99160000
