20
Properties=species:S:1:pos:R:3 gdb_6716=T pbc="F F F"
C       -0.03230000       1.52370000      -0.08900000
C       -0.01550000      -0.00720000       0.00020000
C        0.80530000      -0.49710000       1.19950000
C       -1.44460000      -0.54470000       0.04930000
O       -1.41370000      -1.95970000       0.00150000
C       -2.68070000      -2.55470000       0.07030000
C       -2.50310000      -4.06200000       0.00860000
O       -3.41490000      -4.84390000       0.05080000
H        0.98540000       1.91950000      -0.15880000
H       -0.58800000       1.87250000      -0.96600000
H       -0.49720000       1.96570000       0.80030000
H        0.44010000      -0.40530000      -0.91630000
H        0.40000000      -0.09820000       2.13760000
H        0.79090000      -1.58750000       1.26240000
H        1.84660000      -0.16890000       1.12150000
H       -1.94630000      -0.20890000       0.97420000
H       -2.03140000      -0.15400000      -0.79890000
H       -3.21150000      -2.29890000       1.00360000
H       -3.33370000      -2.24200000      -0.76300000
H       -1.44080000      -4.38020000      -0.08020000
