18
Properties=species:S:1:pos:R:3 gdb_1144=T pbc="F F F"
C       -0.00460000       1.53340000       0.03070000
N       -0.00710000       0.09210000       0.09460000
C       -1.24400000      -0.59810000       0.50360000
C       -0.39760000      -1.59930000       1.32800000
C       -0.85010000      -1.92970000       2.74150000
O       -0.22100000      -2.77600000       0.55750000
C        0.76260000      -0.57050000       1.16130000
H        1.00100000       1.89410000      -0.21180000
H       -0.68060000       1.87240000      -0.76190000
H       -0.32050000       2.01640000       0.97730000
H       -1.90380000       0.01330000       1.14100000
H       -1.82630000      -1.02980000      -0.31660000
H       -1.76470000      -2.53030000       2.71470000
H       -0.08090000      -2.50840000       3.26900000
H       -1.04220000      -1.02520000       3.32570000
H        0.43460000      -3.32480000       1.00170000
H        1.73360000      -0.97200000       0.84760000
H        0.90310000       0.05290000       2.06060000
