19
Properties=species:S:1:pos:R:3 gdb_106288=T pbc="F F F"
C        0.10460000       1.43860000       0.25860000
C        0.01110000      -0.03830000       0.00180000
C        0.62620000      -0.77080000      -1.23720000
C        0.57110000      -1.90700000      -0.17370000
C        1.47960000      -3.10350000      -0.09930000
O        1.34220000      -3.75760000       1.15000000
O        0.88760000      -0.88180000       0.83930000
C       -0.95350000      -2.05990000       0.02900000
C       -1.33540000      -0.78880000       0.14290000
H        1.13100000       1.79160000       0.12970000
H       -0.54160000       1.98650000      -0.43480000
H       -0.21480000       1.67060000       1.27960000
H        0.02320000      -0.86950000      -2.14170000
H        1.64690000      -0.44220000      -1.45320000
H        1.21040000      -3.83100000      -0.87310000
H        2.51780000      -2.78590000      -0.28070000
H        1.41600000      -3.07220000       1.82490000
H       -1.51210000      -2.98360000       0.05850000
H       -2.31070000      -0.34610000       0.28750000
