17
Properties=species:S:1:pos:R:3 gdb_53211=T pbc="F F F"
C       -0.03900000       1.44060000      -0.13760000
C       -0.02310000      -0.01350000      -0.07100000
C        0.01090000      -1.21800000      -0.02550000
C        0.00940000      -2.66840000       0.04700000
N        0.10130000      -3.23620000       1.41460000
C       -1.26900000      -3.50000000       1.51160000
N       -2.09350000      -3.75250000       2.43330000
C       -1.45200000      -3.30290000      -0.00310000
O       -2.51210000      -2.55430000      -0.48210000
H        0.97220000       1.84220000      -0.26380000
H       -0.64340000       1.79000000      -0.98170000
H       -0.45940000       1.87620000       0.77530000
H        0.73560000      -3.10320000      -0.64630000
H        0.66030000      -2.82450000       2.15050000
H       -1.64850000      -3.75130000       3.35360000
H       -1.44930000      -4.24820000      -0.55040000
H       -2.53420000      -1.71960000       0.00110000
