14
Properties=species:S:1:pos:R:3 gdb_49686=T pbc="F F F"
O        0.44730000       0.16700000       0.61030000
C        0.31300000       1.30710000       0.25530000
N        1.26900000       2.03540000      -0.44950000
C        1.88230000       3.28980000      -0.10490000
C        1.91420000       3.64550000       1.37410000
O        2.52300000       2.53510000       2.04510000
C        3.14730000       1.68570000       1.16670000
O        3.92840000       0.85580000       1.51400000
C        2.69910000       2.02920000      -0.23480000
H       -0.62470000       1.88370000       0.37020000
H        1.87840000       4.07780000      -0.85070000
H        2.52280000       4.54170000       1.53920000
H        0.92370000       3.80860000       1.80840000
H        3.34280000       1.77250000      -1.06700000
