16
Properties=species:S:1:pos:R:3 gdb_130317=T pbc="F F F"
N        0.25490000       1.25990000      -0.44150000
C        0.07390000      -0.07930000      -0.14650000
N       -1.10740000      -0.65180000      -0.12400000
O       -0.86060000      -2.00500000       0.14290000
C        0.46530000      -2.18990000       0.27350000
C        1.12990000      -1.01790000       0.10150000
N        2.48630000      -0.67790000       0.21160000
C        3.48420000      -1.67140000      -0.17080000
C        3.25080000      -0.47990000      -1.03060000
H        1.02120000       1.67590000       0.07080000
H       -0.59480000       1.80210000      -0.35820000
H        0.78620000      -3.19370000       0.50250000
H        4.35740000      -1.72520000       0.47160000
H        3.12660000      -2.62770000      -0.54550000
H        2.72810000      -0.63540000      -1.97030000
H        3.94800000       0.35170000      -1.01490000
