18
Properties=species:S:1:pos:R:3 gdb_17461=T pbc="F F F"
C       -0.15400000       1.49560000       0.01780000
C        0.02430000      -0.00500000      -0.01000000
C       -0.75200000      -0.85260000       0.96590000
C        0.75250000      -0.75760000       1.09750000
C        1.54820000      -1.86300000       0.44330000
O        0.75480000      -2.85230000      -0.23300000
C        1.35170000      -1.80860000      -1.01480000
C        0.42870000      -0.64530000      -1.35080000
H        0.74220000       2.01420000      -0.34330000
H       -0.99450000       1.80820000      -0.61360000
H       -0.35870000       1.84910000       1.03350000
H       -1.34610000      -0.32460000       1.70510000
H       -1.15750000      -1.80210000       0.63940000
H        1.19130000      -0.24330000       1.94490000
H        2.45260000      -2.23880000       0.91350000
H        2.09010000      -2.14570000      -1.73940000
H       -0.43250000      -0.96720000      -1.94690000
H        0.98530000       0.08300000      -1.95320000
