15
Properties=species:S:1:pos:R:3 gdb_35012=T pbc="F F F"
C        0.04310000      -1.21180000      -0.01720000
C        0.05730000      -0.01050000       0.01670000
C        0.04410000       1.42180000       0.06000000
C        0.44200000       2.23670000       1.27770000
C        1.62970000       1.59520000       2.00010000
N        2.40120000       1.50410000       0.71010000
C        1.32460000       2.25240000       0.03070000
C        1.56820000       3.27020000      -0.93620000
N        1.77960000       4.10160000      -1.71380000
H        0.04210000      -2.27300000      -0.05710000
H       -0.76150000       1.89420000      -0.49680000
H       -0.21190000       3.00220000       1.67370000
H        2.08540000       2.28050000       2.71940000
H        1.45440000       0.62380000       2.47020000
H        3.25020000       2.05800000       0.75450000
