16
Properties=species:S:1:pos:R:3 gdb_52564=T pbc="F F F"
C        0.05550000       1.43090000       0.01240000
C        0.07390000      -0.01790000      -0.10090000
C        0.08220000      -1.21880000      -0.20180000
C        0.04270000      -2.66240000      -0.35760000
O       -0.79180000      -3.23690000      -1.03530000
N        1.02650000      -3.31270000       0.33690000
C        1.20070000      -4.75470000       0.24290000
C        2.58010000      -5.12800000      -0.05480000
C        3.72310000      -5.42670000      -0.27260000
H        0.98330000       1.86620000      -0.37440000
H       -0.77930000       1.85980000      -0.55130000
H       -0.04760000       1.74150000       1.05770000
H        1.71470000      -2.76880000       0.83170000
H        0.87950000      -5.24460000       1.17260000
H        0.52030000      -5.09160000      -0.54560000
H        4.72790000      -5.69980000      -0.48150000
