16
Properties=species:S:1:pos:R:3 gdb_39367=T pbc="F F F"
C        0.01150000       1.43500000      -0.22250000
O        1.27150000       1.50030000       0.54830000
C        1.24370000       0.14120000       0.77780000
N        1.92290000      -0.60260000       1.52370000
C        1.36920000      -1.97780000       1.50200000
C       -0.18790000      -2.06560000       1.51290000
C       -0.85520000      -1.18190000       0.47220000
O       -0.23890000      -1.16030000      -0.83460000
C       -0.01480000      -0.06980000       0.03200000
H       -0.76020000       2.04790000       0.24800000
H        0.16870000       1.72660000      -1.26320000
H        1.75150000      -2.50790000       0.62260000
H        1.74930000      -2.50410000       2.38100000
H       -0.48180000      -3.11200000       1.37520000
H       -0.56670000      -1.75310000       2.49470000
H       -1.94030000      -1.10870000       0.46010000
