15
Properties=species:S:1:pos:R:3 gdb_15400=T pbc="F F F"
O        0.18510000       1.34430000       0.05300000
C       -0.00360000      -0.04760000       0.22220000
C       -1.31130000      -0.53960000      -0.41490000
C       -1.45670000      -2.03490000      -0.31050000
O       -1.77740000      -2.57510000       0.97550000
C       -2.74700000      -2.71790000      -0.06230000
C       -3.97530000      -1.96650000       0.08740000
N       -4.96580000      -1.37960000       0.18920000
H       -0.48450000       1.80150000       0.57200000
H        0.85320000      -0.52550000      -0.26610000
H        0.02070000      -0.33940000       1.28230000
H       -2.16570000      -0.05420000       0.06990000
H       -1.32410000      -0.24840000      -1.47170000
H       -0.71460000      -2.62420000      -0.85250000
H       -2.88910000      -3.73310000      -0.42820000
