20
Properties=species:S:1:pos:R:3 gdb_58939=T pbc="F F F"
C       -0.19390000       1.54600000      -0.05870000
C        0.06690000       0.04000000       0.02530000
O       -1.15090000      -0.69190000       0.09220000
C        0.88620000      -0.47600000      -1.13820000
C        1.98670000       0.21170000      -1.93520000
C        1.56760000      -0.75820000      -3.05410000
C        1.94970000      -2.16790000      -2.56360000
C        0.87530000      -1.92380000      -1.52040000
N        0.15900000      -0.91580000      -2.38710000
H        0.73590000       2.11970000       0.01510000
H       -0.68020000       1.80050000      -1.00700000
H       -0.85280000       1.84780000       0.75930000
H        0.59110000      -0.18120000       0.96420000
H       -1.51670000      -0.68210000      -0.80350000
H        1.71300000       1.24190000      -2.17480000
H        3.01990000       0.17640000      -1.57350000
H        1.63140000      -0.47950000      -4.10400000
H        1.63750000      -2.93970000      -3.27170000
H        2.98310000      -2.34660000      -2.24850000
H        0.31590000      -2.64990000      -0.94400000
