16
Properties=species:S:1:pos:R:3 gdb_51990=T pbc="F F F"
N       -0.23810000       1.29930000       0.42060000
C       -0.04870000       0.10260000       0.08840000
O       -1.10630000      -0.76980000       0.21310000
C       -0.91520000      -2.07530000      -0.15820000
O        0.11960000      -2.51300000      -0.58050000
C       -2.19990000      -2.84990000       0.02940000
C       -1.99500000      -4.36280000      -0.09490000
C       -3.30750000      -5.09740000      -0.25450000
O       -3.65340000      -6.04250000       0.40330000
H        0.61710000       1.83630000       0.28310000
H        0.85200000      -0.37530000      -0.29640000
H       -2.63650000      -2.57140000       0.99350000
H       -2.90530000      -2.48410000      -0.72990000
H       -1.38890000      -4.55910000      -0.98940000
H       -1.45840000      -4.77220000       0.76410000
H       -3.95960000      -4.69310000      -1.06580000
