21
Properties=species:S:1:pos:R:3 gdb_53675=T pbc="F F F"
C        0.31740000       1.49860000      -0.22160000
C        0.13470000       0.06800000      -0.02760000
C       -0.02340000      -1.11450000       0.12790000
C       -0.18910000      -2.54710000       0.32950000
O       -1.42840000      -2.97870000      -0.21040000
C       -1.63440000      -4.35890000      -0.06420000
C       -2.04480000      -4.92830000       1.32620000
C       -3.07520000      -5.82380000       0.58300000
C       -2.97020000      -4.86720000      -0.63720000
H        1.23230000       1.71220000      -0.78530000
H       -0.52230000       1.92750000      -0.77940000
H        0.38390000       2.02780000       0.73540000
H        0.64220000      -3.09320000      -0.15000000
H       -0.13700000      -2.78100000       1.40600000
H       -0.77890000      -4.91950000      -0.47570000
H       -1.28320000      -5.41510000       1.93990000
H       -2.54130000      -4.15050000       1.91420000
H       -2.66940000      -6.81470000       0.36210000
H       -4.05740000      -5.94700000       1.04270000
H       -3.71570000      -4.06880000      -0.58760000
H       -2.96840000      -5.29380000      -1.64240000
