19
Properties=species:S:1:pos:R:3 gdb_74942=T pbc="F F F"
C       -0.03740000       1.55290000       0.00670000
C       -0.03160000       0.05910000      -0.03720000
C       -0.08460000      -0.75030000      -1.10730000
C        0.10000000      -2.18080000      -0.65270000
C        1.57840000      -2.28070000      -0.11320000
C        1.24700000      -1.86310000       1.32360000
O        0.27000000      -2.89230000       1.67380000
C       -0.58820000      -2.16920000       0.76810000
C        0.04370000      -0.82400000       1.17730000
H        0.89320000       1.94430000       0.43780000
H       -0.15170000       1.98210000      -0.99280000
H       -0.85320000       1.93170000       0.63560000
H       -0.11200000      -0.43700000      -2.14520000
H       -0.19840000      -2.96520000      -1.34650000
H        1.96450000      -3.30240000      -0.11280000
H        2.26540000      -1.62100000      -0.64670000
H        2.04450000      -1.73670000       2.05440000
H       -1.65070000      -2.40270000       0.84500000
H       -0.26810000      -0.41860000       2.13960000
