20
Properties=species:S:1:pos:R:3 gdb_87828=T pbc="F F F"
C       -0.11690000       1.42650000      -0.13180000
C       -0.00670000      -0.06250000       0.08920000
N        1.35580000      -0.64240000       0.00610000
C        0.64340000      -0.65750000       1.27760000
C        1.26030000      -0.07760000       2.56970000
C        0.93510000      -1.40760000       3.27410000
C       -0.55480000      -1.67490000       3.20760000
C        0.29410000      -1.94660000       1.99840000
O        0.42060000      -3.19110000       1.40400000
H        0.72260000       1.94700000       0.33660000
H       -0.10590000       1.66580000      -1.20070000
H       -1.04810000       1.81770000       0.29290000
H       -0.81380000      -0.65100000      -0.34980000
H        1.32140000      -1.57800000      -0.39690000
H        2.33000000       0.10420000       2.44720000
H        0.78380000       0.81250000       2.99340000
H        1.56740000      -1.91610000       3.99020000
H       -0.87190000      -2.56810000       3.73870000
H       -1.27250000      -0.85710000       3.22480000
H       -0.46010000      -3.52800000       1.20900000
