20
Properties=species:S:1:pos:R:3 gdb_94218=T pbc="F F F"
C       -0.04030000       1.55690000      -0.07450000
C        0.06990000       0.04270000      -0.00800000
C        1.09890000      -0.69840000      -0.90870000
C        1.39160000      -1.66400000       0.27100000
C        0.75540000      -0.61580000       1.22890000
O        1.70980000       0.28720000       1.75040000
C       -0.17450000      -1.11830000       2.35240000
C        0.59010000      -1.78970000       3.40110000
N        1.25410000      -2.29990000       4.19850000
H        0.92950000       2.02410000       0.11040000
H       -0.39400000       1.86960000      -1.06290000
H       -0.74690000       1.94400000       0.66790000
H       -0.91800000      -0.41510000      -0.13830000
H        0.72720000      -1.13660000      -1.83700000
H        1.95910000      -0.06380000      -1.13470000
H        0.80250000      -2.58390000       0.21310000
H        2.43320000      -1.92370000       0.47320000
H        2.29430000      -0.20050000       2.34350000
H       -0.70240000      -0.26470000       2.79220000
H       -0.92520000      -1.80860000       1.95430000
