17
Properties=species:S:1:pos:R:3 gdb_18228=T pbc="F F F"
O       -0.72160000       1.03290000      -0.43930000
C        0.21130000       1.02860000       0.32350000
C        1.44420000       1.90060000       0.19800000
C        1.53670000       2.70230000      -1.11430000
C        2.18870000       4.03970000      -0.69610000
N        1.92400000       4.25680000       0.74030000
C        0.51160000       4.11670000       1.11880000
C        1.45440000       2.97960000       1.29480000
H        0.20420000       0.37280000       1.22400000
H        2.32200000       1.25890000       0.35040000
H        2.11920000       2.17860000      -1.87550000
H        0.53290000       2.83920000      -1.52250000
H        3.27650000       3.99730000      -0.81630000
H        1.82560000       4.89250000      -1.27760000
H        0.21380000       4.71080000       1.97750000
H       -0.24210000       4.04040000       0.33850000
H        1.81480000       2.70670000       2.28210000
