20
Properties=species:S:1:pos:R:3 gdb_26155=T pbc="F F F"
C        0.17460000       1.23910000       1.22210000
C       -0.18120000       0.48850000      -0.06240000
O        0.84530000      -0.46660000      -0.38450000
C       -1.54420000      -0.15700000      -0.02330000
C       -2.08930000      -0.93470000      -1.03400000
C       -1.55190000      -1.31600000      -2.37590000
N       -3.33500000      -1.33020000      -0.61390000
C       -3.60380000      -0.82910000       0.63600000
C       -2.51050000      -0.09750000       1.02830000
H        1.18440000       1.64800000       1.13750000
H       -0.52240000       2.06270000       1.40750000
H        0.14690000       0.56810000       2.08790000
H       -0.13320000       1.20060000      -0.89670000
H        0.69350000      -1.23190000       0.18160000
H       -0.46670000      -1.20290000      -2.37700000
H       -1.78340000      -2.35930000      -2.62240000
H       -1.96270000      -0.69300000      -3.18140000
H       -3.95350000      -1.91770000      -1.14630000
H       -4.53560000      -1.04180000       1.13430000
H       -2.41040000       0.42720000       1.96550000
