21
Properties=species:S:1:pos:R:3 gdb_65607=T pbc="F F F"
C        0.08720000       1.49370000      -0.09290000
C        0.02470000      -0.03590000      -0.02850000
C        1.01590000      -0.83090000      -0.96300000
C        1.48270000      -1.69900000       0.23710000
C        2.80480000      -1.24110000       0.89750000
C        2.01060000      -0.20990000       1.75710000
C        0.66820000      -0.77240000       1.20470000
C       -1.34810000      -0.48970000      -0.21270000
C       -2.48110000      -0.86820000      -0.35750000
H        1.11630000       1.85270000      -0.00400000
H       -0.31120000       1.84910000      -1.04820000
H       -0.50720000       1.94510000       0.70760000
H        0.52800000      -1.36760000      -1.77760000
H        1.80460000      -0.19930000      -1.38400000
H        1.29970000      -2.77000000       0.14830000
H        3.27100000      -2.02110000       1.50530000
H        3.56460000      -0.83830000       0.22060000
H        2.12530000      -0.34480000       2.83500000
H        2.21010000       0.84070000       1.53470000
H       -0.03700000      -1.14640000       1.94650000
H       -3.48130000      -1.19970000      -0.48780000
