20
Properties=species:S:1:pos:R:3 gdb_98295=T pbc="F F F"
C        0.73210000       1.19700000       0.29720000
N        0.47780000      -0.20370000       0.01970000
C        0.15960000      -0.65970000      -1.22520000
O        0.07800000       0.06670000      -2.20230000
C       -0.09020000      -2.16630000      -1.33270000
C       -1.53570000      -2.42750000      -1.78820000
C        0.89300000      -2.74410000      -2.33540000
C        2.13920000      -3.40100000      -1.92710000
O        1.00800000      -4.16680000      -2.35290000
H        0.62610000       1.73590000      -0.64490000
H        0.01480000       1.59720000       1.02230000
H        1.74510000       1.34930000       0.68570000
H        0.51660000      -0.86300000       0.77850000
H        0.08120000      -2.65880000      -0.36770000
H       -2.25430000      -2.08770000      -1.03630000
H       -1.73530000      -1.88850000      -2.71800000
H       -1.68660000      -3.49710000      -1.95550000
H        0.85300000      -2.27570000      -3.31830000
H        2.99430000      -3.41370000      -2.60110000
H        2.38430000      -3.48240000      -0.86830000
