19
Properties=species:S:1:pos:R:3 gdb_110856=T pbc="F F F"
C        1.06570000       0.62660000      -1.92430000
C        1.46550000      -0.66800000      -1.24920000
O        2.90700000      -0.90820000      -1.15680000
C        2.76760000      -1.35260000       0.19730000
C        2.36840000      -0.20780000       1.09570000
C        2.91180000       1.19840000       0.96180000
O        4.06000000       1.38360000       1.78040000
C        1.32120000      -0.92290000       0.25400000
O        0.23530000      -1.57580000       0.80340000
H        1.44380000       0.64900000      -2.95150000
H       -0.02710000       0.69020000      -1.97050000
H        1.44100000       1.50740000      -1.40000000
H        1.01240000      -1.51850000      -1.77700000
H        3.28150000      -2.25800000       0.49750000
H        2.28020000      -0.53340000       2.13210000
H        3.13720000       1.41530000      -0.08880000
H        2.18030000       1.93480000       1.31180000
H        4.74300000       0.79020000       1.45060000
H       -0.30180000      -0.93160000       1.27690000
