21
Properties=species:S:1:pos:R:3 gdb_71612=T pbc="F F F"
C       -0.10910000       1.50620000      -0.00080000
C        0.07380000       0.01540000       0.01200000
C        1.00940000      -0.77660000      -0.93740000
C        0.72380000      -1.90050000       0.08400000
C        0.68670000      -0.80740000       1.20320000
C       -0.30670000      -1.23980000       2.28960000
C       -1.19760000      -2.28240000       1.54970000
C       -0.81920000      -2.03190000       0.08860000
O       -1.18890000      -0.65770000      -0.19760000
H        0.85260000       2.01390000       0.11650000
H       -0.55850000       1.82720000      -0.94600000
H       -0.77120000       1.82210000       0.81180000
H        0.67360000      -0.89820000      -1.97030000
H        2.04820000      -0.43950000      -0.90090000
H        1.30960000      -2.81630000       0.15790000
H        1.65590000      -0.43680000       1.53850000
H        0.20600000      -1.67570000       3.15180000
H       -0.89470000      -0.39350000       2.65790000
H       -0.94990000      -3.30860000       1.84610000
H       -2.26690000      -2.13080000       1.71540000
H       -1.26990000      -2.70070000      -0.64800000
