15
Properties=species:S:1:pos:R:3 gdb_55993=T pbc="F F F"
N        0.11190000       1.36200000      -0.11010000
C        0.08030000       0.01450000       0.18940000
O        0.98590000      -0.56660000       0.75370000
N       -1.07940000      -0.62580000      -0.23290000
C       -1.15060000      -2.05350000      -0.18000000
C       -2.30140000      -2.77330000       0.56440000
O       -2.63730000      -3.49930000      -0.66320000
C       -1.72750000      -2.78890000      -1.40360000
O       -1.57180000      -2.79420000      -2.58110000
H        0.84550000       1.86080000       0.36860000
H       -0.75890000       1.86360000      -0.19080000
H       -1.63620000      -0.16550000      -0.93680000
H       -0.16550000      -2.42800000       0.10850000
H       -2.02330000      -3.46280000       1.36270000
H       -3.12710000      -2.12760000       0.87060000
