15
Properties=species:S:1:pos:R:3 gdb_48698=T pbc="F F F"
O       -0.11580000       0.00130000       0.07920000
C        0.00590000       1.18090000      -0.13810000
C        1.27590000       1.91370000       0.05070000
C        1.32950000       3.37090000       0.33600000
N        1.75260000       2.94660000      -0.99640000
C        3.15120000       2.38340000      -0.80890000
C        2.64970000       1.26880000       0.16050000
C        3.71710000       1.91100000      -2.06450000
N        4.18640000       1.52140000      -3.04560000
H       -0.83570000       1.80830000      -0.50530000
H        0.39310000       3.92050000       0.32080000
H        2.06490000       3.73930000       1.04900000
H        3.83190000       3.11870000      -0.36780000
H        3.10730000       1.23400000       1.15080000
H        2.67560000       0.27660000      -0.28860000
