18
Properties=species:S:1:pos:R:3 gdb_105211=T pbc="F F F"
C       -0.60070000       0.89930000       0.09780000
O        0.54740000       0.02400000       0.10210000
C        0.96940000      -0.43830000      -1.17240000
C        2.11240000      -1.40790000      -1.05230000
C        0.73460000      -1.94480000      -1.30900000
N        0.05300000      -2.46040000      -0.08870000
H        0.07080000      -1.59500000       0.52500000
H       -0.91420000      -2.72330000      -0.27730000
H        0.52840000      -3.24240000       0.36310000
C        0.87530000       0.37800000      -2.51610000
O        0.58580000       1.57640000      -2.41930000
O        1.13590000      -0.36010000      -3.48220000
H       -0.41920000       1.71350000      -0.60380000
H       -1.50880000       0.35600000      -0.20290000
H       -0.70900000       1.24640000       1.12750000
H        2.79170000      -1.44640000      -1.89330000
H        2.54430000      -1.56210000      -0.06620000
H        0.43600000      -2.38820000      -2.24740000
