19
Properties=species:S:1:pos:R:3 gdb_79869=T pbc="F F F"
C       -0.17760000       1.57700000       0.01790000
C        0.00360000       0.06730000       0.04180000
C        1.22380000      -0.60210000      -0.65600000
C        2.16400000      -0.17390000       0.51920000
C        3.13460000      -1.32420000       0.74680000
O        2.26750000      -2.46010000       0.56240000
C        1.02770000      -1.84660000       0.25530000
C        0.79290000      -0.61370000       1.17480000
O        0.43840000      -0.58730000       2.50860000
H        0.75110000       2.11720000       0.22000000
H       -0.54910000       1.90650000      -0.95840000
H       -0.91090000       1.88500000       0.77050000
H       -0.94890000      -0.43070000      -0.17950000
H        1.47230000      -0.60450000      -1.71500000
H        2.53000000       0.84650000       0.60840000
H        3.95660000      -1.35920000       0.02100000
H        3.56340000      -1.33660000       1.75790000
H        0.25380000      -2.58990000       0.06730000
H        0.90720000      -1.29830000       2.96050000
