19
Properties=species:S:1:pos:R:3 gdb_115558=T pbc="F F F"
O       -0.06350000       1.43520000      -0.20040000
C        0.04110000       0.03640000       0.04200000
C       -1.36420000      -0.52650000      -0.01380000
C       -2.11610000      -0.59310000      -1.36930000
C       -2.67690000      -1.97770000      -0.94940000
C       -1.54700000      -2.07210000       0.12990000
O       -0.37770000      -2.70670000      -0.38240000
C       -1.90450000      -2.60670000       1.43730000
C       -2.21090000      -3.07240000       2.50340000
H        0.82680000       1.79380000      -0.25730000
H        0.66940000      -0.45780000      -0.71040000
H        0.48400000      -0.16820000       1.02990000
H       -1.98150000      -0.02410000       0.73610000
H       -2.83800000       0.19800000      -1.57430000
H       -1.42350000      -0.66800000      -2.21100000
H       -3.66660000      -1.91170000      -0.49180000
H       -2.67100000      -2.78180000      -1.68910000
H       -0.52110000      -3.65820000      -0.33610000
H       -2.47720000      -3.47420000       3.44990000
