16
Properties=species:S:1:pos:R:3 gdb_32501=T pbc="F F F"
C        0.02660000       1.35270000      -0.08140000
N       -0.15680000      -0.07230000       0.11100000
C        0.57590000      -0.70230000       1.09780000
C        1.23930000      -0.17100000       2.16500000
O        1.78470000      -1.17720000       2.93060000
C        1.47840000      -2.34220000       2.33980000
C        0.73870000      -2.14060000       1.20660000
C        0.23290000      -3.09620000       0.30050000
C       -0.21260000      -3.86950000      -0.50990000
H        1.07580000       1.63730000      -0.26220000
H       -0.57850000       1.68360000      -0.92810000
H       -0.31960000       1.89410000       0.80680000
H       -0.22070000      -0.61330000      -0.73930000
H        1.40360000       0.83010000       2.52030000
H        1.84210000      -3.23850000       2.81420000
H       -0.60540000      -4.56770000      -1.20640000
