14
Properties=species:S:1:pos:R:3 gdb_132913=T pbc="F F F"
N        0.02670000       1.39310000      -0.13010000
C       -0.02530000       0.02370000      -0.05230000
C       -1.18900000      -0.70730000      -0.02500000
C       -1.21070000      -2.14850000      -0.00110000
O       -2.19570000      -2.87160000       0.02060000
N        0.07870000      -2.73110000      -0.00200000
C        1.25010000      -2.03450000      -0.01740000
C        1.22080000      -0.68530000      -0.04350000
F        2.35710000       0.03640000      -0.04870000
H        0.89850000       1.82790000       0.12460000
H       -0.80130000       1.90440000       0.12830000
H       -2.15430000      -0.21570000      -0.02790000
H        0.08380000      -3.74020000       0.01570000
H        2.17780000      -2.59130000      -0.00580000
