16
Properties=species:S:1:pos:R:3 gdb_20060=T pbc="F F F"
C        1.04220000       0.95800000       0.19610000
N        0.46530000       0.17910000      -0.91530000
C       -0.29040000       0.32590000       0.33540000
C       -0.53230000      -0.93600000       1.15000000
C        0.62590000      -1.96260000       1.13490000
O        1.15550000      -1.91090000       2.48570000
C        0.28650000      -1.13590000       3.17410000
N       -0.68450000      -0.57940000       2.57990000
H        1.91540000       0.51000000       0.66310000
H        1.08580000       2.04030000       0.11310000
H        0.09820000       0.79780000      -1.63240000
H       -1.14260000       1.00200000       0.33950000
H       -1.46280000      -1.39270000       0.79620000
H        0.28090000      -2.98310000       0.94800000
H        1.42000000      -1.72040000       0.42800000
H        0.50800000      -1.04930000       4.23250000
