17
Properties=species:S:1:pos:R:3 gdb_73707=T pbc="F F F"
C        0.02050000       1.52110000      -0.11470000
C       -0.00250000       0.01620000      -0.01550000
O        0.35990000      -0.54440000      -1.26310000
C       -0.12820000      -1.85200000      -1.41690000
O        0.12150000      -2.65310000      -0.28560000
C       -0.20460000      -1.94980000       0.88110000
C        0.61930000      -0.68120000       1.23700000
O       -0.52960000      -0.22120000       2.03730000
C       -1.14690000      -0.70410000       0.79670000
H        1.00720000       1.85720000      -0.44740000
H       -0.71520000       1.86520000      -0.84760000
H       -0.20190000       1.96310000       0.85720000
H       -1.21600000      -1.81880000      -1.60250000
H        0.38690000      -2.30290000      -2.26680000
H       -0.39200000      -2.64060000       1.70250000
H        1.61670000      -0.58980000       1.66640000
H       -2.23240000      -0.63010000       0.72250000
