18
Properties=species:S:1:pos:R:3 gdb_75584=T pbc="F F F"
C        0.08500000       1.24290000       0.62110000
C        0.11040000      -0.15290000       0.03880000
C       -1.03070000      -0.85420000      -0.04090000
C       -1.34010000      -2.21610000      -0.57930000
O       -0.26650000      -2.93450000      -1.15210000
C        0.88450000      -2.93450000      -0.37630000
O        1.76150000      -1.87620000      -0.71130000
C        1.45790000      -0.57200000      -0.43470000
N        2.35630000       0.31660000      -0.58700000
H        0.77370000       1.32660000       1.46730000
H        0.42290000       1.97240000      -0.11900000
H       -0.92170000       1.50610000       0.95440000
H       -1.92400000      -0.37070000       0.35350000
H       -1.80360000      -2.80990000       0.22950000
H       -2.09840000      -2.13190000      -1.36770000
H        0.64700000      -2.90750000       0.69710000
H        1.44770000      -3.83800000      -0.61700000
H        3.21950000      -0.12220000      -0.91270000
