16
Properties=species:S:1:pos:R:3 gdb_42693=T pbc="F F F"
O       -0.00840000      -0.01010000      -0.05390000
C       -0.02190000       1.19700000      -0.02240000
C       -1.23590000       2.07740000       0.00880000
C       -1.15830000       3.25000000       0.98360000
C        0.12590000       3.34150000       1.78870000
N        1.24070000       3.25350000       0.82810000
C        0.71420000       3.45090000      -0.52250000
C       -0.81460000       3.45930000      -0.46370000
C        1.18730000       2.09270000      -0.10280000
H       -2.20000000       1.64130000      -0.21850000
H       -2.09060000       3.61440000       1.40050000
H        0.19600000       4.31450000       2.28750000
H        0.22530000       2.56200000       2.55020000
H        1.25900000       4.09300000      -1.20480000
H       -1.40720000       4.04810000      -1.14990000
H        2.14470000       1.65400000      -0.36080000
