18
Properties=species:S:1:pos:R:3 gdb_89667=T pbc="F F F"
C       -0.16050000       1.51320000      -0.00560000
C        0.11180000       0.01950000       0.00740000
N        1.27240000      -0.44460000      -0.84290000
C        1.78280000      -1.26310000       0.28830000
C        2.19130000      -0.29140000       1.38180000
C        0.74000000      -0.63730000       1.23970000
O       -0.02360000      -1.18770000       2.24470000
C        2.28160000      -2.57980000       0.13830000
C        2.68010000      -3.70600000      -0.01460000
H        0.73840000       2.08050000       0.25160000
H       -0.48980000       1.83920000      -0.99750000
H       -0.95060000       1.76250000       0.71120000
H       -0.79940000      -0.53770000      -0.24160000
H        0.94400000      -1.05180000      -1.58830000
H        2.67440000      -0.76540000       2.23110000
H        2.58770000       0.67930000       1.09490000
H        0.24360000      -0.80310000       3.08570000
H        3.04090000      -4.69610000      -0.14310000
