18
Properties=species:S:1:pos:R:3 gdb_50160=T pbc="F F F"
O       -0.23170000       0.08130000      -0.07640000
C        0.00190000       1.24000000      -0.31710000
C        1.32800000       1.90490000      -0.03750000
C        1.30680000       2.76280000       1.26750000
C        2.10260000       1.59910000       1.90570000
C        3.25630000       1.81510000       2.90000000
O        2.53010000       1.14780000       3.95340000
C        1.48040000       0.76010000       3.04650000
N        2.34760000       1.03590000       0.56660000
H       -0.77060000       1.90640000      -0.76380000
H        1.64770000       2.43530000      -0.94510000
H        1.87730000       3.68880000       1.17720000
H        0.32860000       2.98120000       1.70120000
H        4.17570000       1.28350000       2.62130000
H        3.49890000       2.85370000       3.15740000
H        0.48800000       1.06230000       3.40340000
H        1.47570000      -0.32160000       2.85120000
H        2.12520000       0.04710000       0.47720000
