21
Properties=species:S:1:pos:R:3 gdb_98274=T pbc="F F F"
C        0.20400000       1.34430000       0.19110000
O        0.37180000      -0.07370000       0.06200000
C        0.48120000      -0.52930000      -1.20330000
O        0.46390000       0.19170000      -2.17160000
C        0.57810000      -2.04370000      -1.23790000
C       -0.84600000      -2.62220000      -1.35230000
C        1.47890000      -2.51480000      -2.40210000
C        2.91480000      -2.00490000      -2.28860000
O        1.44830000      -3.93510000      -2.51520000
H        1.06080000       1.87420000      -0.23260000
H       -0.70090000       1.67470000      -0.32500000
H        0.12620000       1.53790000       1.26100000
H        1.01780000      -2.37470000      -0.28880000
H       -1.34370000      -2.23840000      -2.24860000
H       -0.79190000      -3.70910000      -1.43110000
H       -1.44900000      -2.35390000      -0.48060000
H        1.03960000      -2.14690000      -3.33480000
H        3.51550000      -2.40090000      -3.11170000
H        2.95120000      -0.91330000      -2.32770000
H        3.37230000      -2.32910000      -1.34440000
H        1.96070000      -4.29820000      -1.78410000
