15
Properties=species:S:1:pos:R:3 gdb_76604=T pbc="F F F"
O        0.15420000       1.37670000      -0.01210000
C        0.06740000       0.00730000       0.04880000
C       -0.39990000      -0.72780000       1.24190000
O       -0.79290000      -0.11290000       2.40550000
C       -1.33540000      -0.71090000      -0.02880000
C       -2.49230000       0.16320000       0.05590000
O       -2.47530000       1.21720000       0.71090000
C       -3.68320000      -0.23600000      -0.65600000
C       -4.67150000      -0.57650000      -1.25260000
H       -0.65500000       1.74970000       0.37640000
H        0.82480000      -0.46250000      -0.57130000
H        0.03690000      -1.70170000       1.44020000
H       -1.35900000       0.64250000       2.17340000
H       -1.42940000      -1.61230000      -0.62080000
H       -5.55160000      -0.86480000      -1.77490000
