21
Properties=species:S:1:pos:R:3 gdb_64323=T pbc="F F F"
C        0.04030000       1.50710000       0.06440000
C       -0.05950000      -0.01640000       0.00030000
C       -1.53350000      -0.45520000      -0.00440000
C        0.67820000      -0.55800000      -1.25610000
C        0.88590000      -2.06100000      -1.17280000
O        0.57160000      -2.82500000      -2.05580000
C        1.50120000      -2.50800000       0.14160000
C        0.73360000      -1.87500000       1.31850000
O        0.61930000      -0.47300000       1.17920000
H        1.08640000       1.81270000       0.15200000
H       -0.38520000       1.96160000      -0.83500000
H       -0.50090000       1.88620000       0.93600000
H       -2.07170000       0.04400000      -0.81550000
H       -1.65180000      -1.53210000      -0.15550000
H       -2.00650000      -0.18310000       0.94350000
H        0.13380000      -0.31890000      -2.17280000
H        1.66510000      -0.08020000      -1.30140000
H        1.49910000      -3.59920000       0.19870000
H        2.53940000      -2.15380000       0.17420000
H       -0.25360000      -2.34980000       1.41420000
H        1.26830000      -2.04050000       2.25780000
