20
Properties=species:S:1:pos:R:3 gdb_93372=T pbc="F F F"
C       -0.34970000       1.56060000       0.01070000
C        0.04050000       0.07710000      -0.01750000
N        0.71790000      -0.24890000      -1.28440000
C        2.17110000      -0.05250000      -1.26370000
C        2.84490000      -0.94770000      -0.22150000
O        3.78790000      -1.66190000      -0.48920000
C        2.20510000      -0.93910000       1.12290000
C        1.97450000       0.42090000       1.77990000
C        0.80650000      -0.34950000       1.25250000
H        0.52850000       2.21140000      -0.04610000
H       -0.99430000       1.79290000      -0.84030000
H       -0.88040000       1.80420000       0.93660000
H       -0.88890000      -0.50260000      -0.02740000
H        0.53580000      -1.22040000      -1.51430000
H        2.59430000      -0.29360000      -2.24180000
H        2.38740000       1.00470000      -1.06620000
H        2.50160000      -1.76130000       1.76430000
H        2.11940000       0.47350000       2.85300000
H        2.31530000       1.30110000       1.24670000
H        0.18430000      -0.81390000       2.01230000
