15
Properties=species:S:1:pos:R:3 gdb_51500=T pbc="F F F"
N       -0.06130000       1.28740000      -0.00500000
C       -0.12680000       0.03780000      -0.15270000
O       -0.72050000      -0.71160000       0.81040000
C       -0.82460000      -2.10340000       0.55190000
C       -1.27780000      -2.87060000       1.76090000
C       -2.36560000      -3.57200000       1.43170000
N       -2.74400000      -3.35990000       0.09300000
C       -1.93050000      -2.41760000      -0.50100000
O       -2.04990000      -1.93320000      -1.59940000
H        0.42610000       1.70390000      -0.79560000
H        0.25530000      -0.54990000      -0.99450000
H        0.13120000      -2.48700000       0.16240000
H       -0.77210000      -2.86990000       2.71320000
H       -2.94060000      -4.25930000       2.03580000
H       -3.61540000      -3.65570000      -0.31640000
