19
Properties=species:S:1:pos:R:3 gdb_53329=T pbc="F F F"
C       -0.04700000       1.48630000      -0.10760000
C       -0.00250000       0.03230000      -0.05290000
C        0.03180000      -1.17080000      -0.00220000
C        0.05920000      -2.61800000       0.05990000
C        0.33960000      -3.33240000       1.44400000
C       -1.00380000      -4.04980000       1.28720000
O       -2.00980000      -3.02920000       1.20390000
C       -1.30110000      -3.37470000       0.01140000
C       -2.08340000      -3.74850000      -1.20350000
H        0.66620000       1.93290000       0.59450000
H        0.19960000       1.85750000      -1.10880000
H       -1.04300000       1.86350000       0.14980000
H        0.73430000      -3.02410000      -0.70170000
H        1.20990000      -3.99090000       1.40120000
H        0.40910000      -2.67410000       2.31140000
H       -1.31280000      -5.01830000       1.66430000
H       -2.49690000      -2.85350000      -1.68160000
H       -1.44920000      -4.25940000      -1.93510000
H       -2.91350000      -4.40700000      -0.93430000
