17
Properties=species:S:1:pos:R:3 gdb_62531=T pbc="F F F"
C       -0.13730000       1.53030000      -0.10440000
C       -0.02320000       0.01430000       0.00930000
N       -1.33190000      -0.57970000       0.12120000
C        0.90670000      -0.62100000      -1.11750000
N        1.94980000      -0.74870000      -0.08630000
C        1.09500000      -0.44040000       0.97620000
N        1.12980000      -0.50090000       2.23480000
C        0.43600000      -1.89290000      -1.66070000
N        0.08870000      -2.91660000      -2.07070000
H        0.83760000       1.98710000      -0.29300000
H       -0.82500000       1.79650000      -0.91190000
H       -0.52220000       1.94100000       0.83430000
H       -1.27110000      -1.56840000       0.34610000
H       -1.84210000      -0.13740000       0.87950000
H        1.17070000       0.05210000      -1.93840000
H        2.68030000      -1.44790000      -0.09100000
H        2.00180000      -0.89930000       2.58700000
