20
Properties=species:S:1:pos:R:3 gdb_67564=T pbc="F F F"
C        0.03330000       1.51830000      -0.06060000
C        0.03190000       0.00610000      -0.00380000
C        0.42910000      -0.73830000      -1.27960000
N        1.67130000      -1.54480000      -1.13060000
C        0.33570000      -2.14870000      -0.86690000
C       -0.10540000      -2.00210000       0.57940000
C        0.65120000      -0.78670000       1.20600000
C       -0.60420000      -0.47900000       2.05850000
C       -1.14890000      -0.82520000       0.65660000
H        1.03720000       1.89140000      -0.29240000
H       -0.64030000       1.87970000      -0.84670000
H       -0.28260000       1.97720000       0.88030000
H        0.13860000      -0.37190000      -2.25850000
H        1.97470000      -1.83690000      -2.05920000
H       -0.03630000      -2.94050000      -1.50690000
H       -0.26620000      -2.89110000       1.19060000
H        1.69500000      -0.77110000       1.51550000
H       -0.83130000      -1.19140000       2.85660000
H       -0.73450000       0.54520000       2.41450000
H       -2.19170000      -0.85300000       0.32960000
