16
Properties=species:S:1:pos:R:3 gdb_125401=T pbc="F F F"
C       -0.10930000       1.54150000      -0.03630000
C       -0.07650000       0.04890000       0.02180000
C       -0.07430000      -0.83570000      -1.00850000
O       -0.04000000      -2.10710000      -0.56490000
N       -0.01930000      -2.08800000       0.81140000
C       -0.04070000      -0.81980000       1.16140000
C       -0.01620000      -0.46430000       2.59960000
N       -0.12110000      -1.54130000       3.44670000
N        0.06510000       0.77580000       2.91550000
H        0.77030000       1.97150000       0.44890000
H       -0.14880000       1.88460000      -1.07400000
H       -0.97570000       1.93560000       0.50100000
H       -0.09440000      -0.71560000      -2.08070000
H        0.03090000      -2.45740000       3.05310000
H        0.14650000      -1.41240000       4.40850000
H        0.07510000       0.89660000       3.93020000
