15
Properties=species:S:1:pos:R:3 gdb_45402=T pbc="F F F"
O       -0.11920000       0.19220000       0.36870000
C        0.00180000       1.32040000       0.02550000
O       -0.97300000       2.17700000      -0.42850000
C       -0.02300000       3.26510000      -0.64300000
C        0.05920000       4.19760000       0.57630000
C        1.15600000       3.28370000       1.20000000
C        1.12940000       2.36590000      -0.08350000
C        2.35510000       2.02050000      -0.73910000
C        3.38770000       1.74040000      -1.28770000
H       -0.07950000       3.64670000      -1.66030000
H        0.42910000       5.19350000       0.32380000
H       -0.87810000       4.29360000       1.12630000
H        2.12140000       3.77600000       1.31540000
H        0.90650000       2.76890000       2.12880000
H        4.29600000       1.48100000      -1.77330000
