20
Properties=species:S:1:pos:R:3 gdb_56209=T pbc="F F F"
N       -0.18290000       1.27710000      -0.25680000
C        0.04180000      -0.04430000       0.01990000
O        1.12160000      -0.53450000       0.25380000
O       -1.12390000      -0.73230000      -0.04210000
C       -1.00930000      -2.15030000       0.17170000
C       -2.39160000      -2.74630000       0.04460000
C       -3.07200000      -2.78900000      -1.35280000
C       -3.58450000      -4.21590000      -1.01730000
C       -2.51560000      -4.29530000       0.10710000
H        0.56350000       1.90870000      -0.02280000
H       -1.12550000       1.62520000      -0.21000000
H       -0.32240000      -2.57140000      -0.57100000
H       -0.57640000      -2.33390000       1.16160000
H       -3.05740000      -2.27850000       0.77780000
H       -3.81120000      -2.01850000      -1.58150000
H       -2.32650000      -2.80290000      -2.15460000
H       -4.59930000      -4.19790000      -0.60970000
H       -3.54370000      -4.96940000      -1.80690000
H       -1.59920000      -4.78330000      -0.24150000
H       -2.80340000      -4.74310000       1.06110000
