15
Properties=species:S:1:pos:R:3 gdb_3251=T pbc="F F F"
C       -0.05660000       1.50220000      -0.05920000
N        1.20320000       0.73100000       0.08750000
C       -0.07300000       0.02990000      -0.00160000
C       -0.54010000      -0.96350000       1.09060000
C       -0.91630000      -1.93130000      -0.04340000
N       -1.91880000      -1.22570000      -0.87930000
C       -0.46610000      -0.96160000      -1.08100000
H       -0.33150000       2.08540000       0.81530000
H       -0.27260000       1.98170000      -1.01060000
H        1.69130000       0.69100000      -0.80500000
H        0.30460000      -1.30540000       1.69290000
H       -1.36570000      -0.65010000       1.73370000
H       -0.85920000      -3.01230000      -0.03590000
H       -2.20080000      -1.87480000      -1.61500000
H        0.00590000      -1.12190000      -2.04400000
