17
Properties=species:S:1:pos:R:3 gdb_41922=T pbc="F F F"
C       -0.01820000       1.54050000      -0.00500000
O        1.27550000       2.12740000      -0.08470000
C        2.23300000       1.39850000      -0.79600000
C        2.75010000       0.12640000      -0.11510000
O        2.20570000      -0.16060000       1.13990000
C        0.85390000      -0.60460000       1.14330000
C        0.02450000       0.01140000       0.01510000
O        0.57090000      -0.43310000      -1.23040000
C        1.88520000       0.03550000      -1.35330000
H       -0.47900000       1.93570000       0.90610000
H       -0.62930000       1.84460000      -0.86730000
H        2.91600000       2.04730000      -1.33540000
H        3.80270000      -0.13380000      -0.16800000
H        0.81070000      -1.69760000       1.02880000
H        0.44630000      -0.34010000       2.12430000
H       -0.99650000      -0.37970000       0.05990000
H        2.32350000      -0.28840000      -2.29130000
