18
Properties=species:S:1:pos:R:3 gdb_87019=T pbc="F F F"
C       -0.29280000       1.56320000       0.30510000
C       -0.16660000       0.06590000       0.20390000
N        1.04920000      -0.47710000      -0.36640000
C        0.80570000      -0.72080000       1.07660000
C        1.66000000      -0.04760000       2.01580000
C        2.35860000       0.50550000       2.82350000
C        0.31640000      -2.11540000       1.41750000
C        0.38370000      -2.55770000       2.85810000
O       -0.11460000      -2.82470000       0.53250000
H        0.66610000       2.01780000       0.56020000
H       -0.62450000       1.97160000      -0.65540000
H       -1.02960000       1.84190000       1.06520000
H       -1.08730000      -0.47670000      -0.00600000
H        0.83130000      -1.35980000      -0.83300000
H        2.98700000       0.99510000       3.52600000
H        1.42990000      -2.62430000       3.17480000
H       -0.09010000      -1.81830000       3.51170000
H       -0.09990000      -3.52880000       2.96550000
