21
Properties=species:S:1:pos:R:3 gdb_64256=T pbc="F F F"
C       -0.33630000       1.51980000      -0.03060000
C        0.09860000       0.05730000       0.01280000
O       -1.04730000      -0.79420000       0.16810000
C        0.91890000      -0.39630000      -1.21690000
C        1.56240000      -1.71240000      -0.75470000
C        1.90960000      -1.43820000       0.70720000
C        2.53680000      -2.42750000       1.58570000
O        3.30330000      -1.34780000       1.04340000
C        1.01960000      -0.29280000       1.19990000
H        0.52520000       2.19020000      -0.10840000
H       -0.98270000       1.70630000      -0.89700000
H       -0.89910000       1.77750000       0.87140000
H       -1.61660000      -0.66000000      -0.59750000
H        0.29310000      -0.50020000      -2.10990000
H        1.69070000       0.34980000      -1.44030000
H        0.82830000      -2.52190000      -0.81390000
H        2.44900000      -2.00290000      -1.32230000
H        2.36240000      -2.38520000       2.66080000
H        2.78330000      -3.41720000       1.20020000
H        1.65660000       0.55630000       1.46400000
H        0.42020000      -0.55670000       2.07430000
