19
Properties=species:S:1:pos:R:3 gdb_117433=T pbc="F F F"
C        0.04170000       1.43470000       0.10450000
O        0.03740000       0.03190000      -0.02760000
C        0.61950000      -0.61610000       1.05970000
C        0.57370000      -2.12990000       0.86550000
O        0.04410000      -2.64510000      -0.08700000
C        1.24680000      -2.93910000       1.96760000
C        1.07990000      -4.45410000       1.76690000
C        1.73990000      -5.22600000       2.81170000
C        2.29230000      -5.83930000       3.68550000
H        1.06480000       1.83570000       0.18190000
H       -0.43210000       1.84390000      -0.79030000
H       -0.52400000       1.76400000       0.99060000
H        1.67320000      -0.31300000       1.20670000
H        0.10170000      -0.37700000       2.00820000
H        2.31160000      -2.67430000       1.99700000
H        0.84360000      -2.63180000       2.94060000
H        0.01240000      -4.69850000       1.73320000
H        1.47370000      -4.73090000       0.78300000
H        2.77480000      -6.39800000       4.44850000
