21
Properties=species:S:1:pos:R:3 gdb_117155=T pbc="F F F"
C        0.46310000       1.04360000      -0.00080000
C        0.06660000      -0.39920000       0.31890000
C       -1.39060000      -0.69240000      -0.09900000
O       -1.56890000      -0.49170000      -1.47650000
C       -1.81430000      -2.10780000       0.27660000
O       -2.12170000      -2.89500000      -0.59670000
C       -1.79560000      -2.52820000       1.74830000
O       -0.52380000      -3.04850000       2.08920000
C       -0.29360000      -4.36740000       1.62000000
H        1.51260000       1.22420000       0.25010000
H        0.32040000       1.25220000      -1.06380000
H       -0.14490000       1.75600000       0.56840000
H        0.71640000      -1.09660000      -0.22270000
H        0.19720000      -0.60960000       1.38520000
H       -2.05140000      -0.00550000       0.46180000
H       -1.82930000      -1.35780000      -1.82930000
H       -1.96460000      -1.66800000       2.40320000
H       -2.59090000      -3.27020000       1.90780000
H       -1.03760000      -5.06660000       2.02910000
H       -0.32330000      -4.43160000       0.52560000
H        0.69990000      -4.65220000       1.97280000
