21
Properties=species:S:1:pos:R:3 gdb_78232=T pbc="F F F"
C       -0.13430000       1.40810000       0.05430000
C        0.03420000      -0.09450000       0.01980000
C        0.71920000      -0.73030000      -1.16870000
C        1.41200000      -0.71530000       0.17600000
C        1.41270000      -2.13940000       0.65040000
C        1.97300000      -2.52300000       1.98360000
C        0.82690000      -2.93370000      -0.25230000
C        0.39140000      -2.19000000      -1.50310000
O       -0.95790000      -2.43500000      -1.88830000
H        0.72530000       1.91190000      -0.39990000
H       -1.02840000       1.71950000      -0.49730000
H       -0.23000000       1.77520000       1.08210000
H       -0.77650000      -0.65340000       0.48470000
H        1.03180000      -0.07130000      -1.97030000
H        2.25590000      -0.06690000       0.39000000
H        1.47910000      -1.97020000       2.79270000
H        1.86000000      -3.59280000       2.17710000
H        3.04070000      -2.27730000       2.04720000
H        0.63950000      -3.99530000      -0.13230000
H        0.97080000      -2.51590000      -2.37640000
H       -1.51850000      -2.14570000      -1.15970000
