15
Properties=species:S:1:pos:R:3 gdb_77301=T pbc="F F F"
O        0.10360000       1.33920000       0.37590000
C       -0.03820000      -0.01660000       0.09560000
C       -1.45240000      -0.65810000      -0.09900000
C       -0.90330000      -1.50880000      -1.27840000
C        0.26120000      -0.51220000      -1.32230000
O        0.96250000      -0.06170000      -2.18260000
O       -1.93740000      -1.40890000       0.99810000
C       -3.07190000      -0.99890000       1.61060000
O       -3.52590000      -1.56170000       2.55770000
H        0.47510000       1.75900000      -0.41030000
H        0.49390000      -0.63170000       0.83780000
H       -2.18320000       0.08950000      -0.42410000
H       -0.59120000      -2.50010000      -0.93570000
H       -1.50890000      -1.60570000      -2.18000000
H       -3.51680000      -0.10540000       1.13250000
