16
Properties=species:S:1:pos:R:3 gdb_125250=T pbc="F F F"
C       -0.02890000       1.51320000       0.05320000
C       -0.01720000       0.02250000      -0.05580000
C       -0.04600000      -0.77050000      -1.16580000
C       -0.02250000      -2.11510000      -0.67030000
N       -0.10930000      -3.26910000      -1.42430000
N        0.02470000      -2.15890000       0.64560000
N        0.01960000      -0.83770000       1.03090000
C        0.06080000      -0.47830000       2.37440000
O        0.09500000      -1.24530000       3.29730000
H        0.86640000       1.89890000       0.55260000
H       -0.06390000       1.94570000      -0.94880000
H       -0.90040000       1.87990000       0.60580000
H       -0.09150000      -0.44430000      -2.19300000
H        0.35390000      -3.22860000      -2.31990000
H        0.13210000      -4.10120000      -0.90330000
H        0.05900000       0.61990000       2.48740000
