18
Properties=species:S:1:pos:R:3 gdb_86888=T pbc="F F F"
C       -0.02430000       1.62500000       0.02650000
C       -0.03530000       0.12370000       0.24860000
O        0.34020000      -0.53160000      -0.97680000
C        1.08090000      -1.71210000      -0.69620000
C        1.09600000      -1.87250000       0.84300000
C        0.93980000      -0.41700000       1.30260000
O        2.15820000       0.30210000       1.20200000
C        0.48100000      -2.86860000      -1.37960000
N        0.02440000      -3.79000000      -1.90620000
H        0.98460000       1.96850000      -0.20540000
H       -0.68980000       1.88140000      -0.80160000
H       -0.37590000       2.14280000       0.92430000
H       -1.04820000      -0.20420000       0.52960000
H        2.10240000      -1.58680000      -1.07770000
H        0.24510000      -2.47380000       1.17490000
H        2.01260000      -2.34480000       1.20360000
H        0.51460000      -0.34350000       2.31250000
H        2.77510000      -0.05640000       1.84730000
