16
Properties=species:S:1:pos:R:3 gdb_3224=T pbc="F F F"
C        0.05040000       1.50580000       0.03100000
C       -0.00060000       0.01110000       0.04230000
C       -0.93990000      -0.81410000       0.87640000
C        0.54960000      -1.02930000       0.99430000
C        1.13690000      -1.73650000      -0.23820000
C        0.16530000      -2.07280000      -1.29750000
N        0.62540000      -0.67380000      -1.17450000
H        1.05250000       1.85750000      -0.23380000
H       -0.65070000       1.91140000      -0.70830000
H       -0.21560000       1.91370000       1.01100000
H       -1.35880000      -0.25470000       1.70810000
H       -1.62040000      -1.56430000       0.48840000
H        1.09220000      -0.90130000       1.92200000
H        2.17580000      -2.04850000      -0.28250000
H        0.56300000      -2.54370000      -2.19250000
H       -0.85950000      -2.34910000      -1.07910000
