20
Properties=species:S:1:pos:R:3 gdb_74930=T pbc="F F F"
C       -0.00670000       1.47600000       0.04220000
C        0.03530000      -0.01960000      -0.01250000
C       -0.04910000      -0.77680000      -1.11240000
C        0.09410000      -2.25720000      -0.88300000
C        1.50250000      -2.47200000      -0.24650000
C        0.77770000      -2.22010000       1.07020000
C        0.04780000      -0.83050000       1.26500000
C       -1.25270000      -1.69290000       1.19680000
N       -0.51520000      -2.75100000       0.45510000
H        0.90570000       1.88150000       0.49830000
H       -0.10980000       1.91050000      -0.95610000
H       -0.84380000       1.83060000       0.65800000
H       -0.14130000      -0.37590000      -2.11690000
H       -0.19990000      -2.87490000      -1.73210000
H        1.81610000      -3.51780000      -0.29500000
H        2.30650000      -1.80930000      -0.56980000
H        1.12760000      -2.68450000       1.99680000
H        0.26440000      -0.24690000       2.16280000
H       -1.53920000      -2.11250000       2.16710000
H       -2.12590000      -1.25580000       0.70450000
