19
Properties=species:S:1:pos:R:3 gdb_71495=T pbc="F F F"
C       -0.09870000       1.50000000       0.03310000
C        0.03880000       0.00530000      -0.00060000
C        0.45590000      -0.71880000      -1.29120000
C        0.52610000      -2.16490000      -0.67130000
C        1.93430000      -2.31870000      -0.13730000
C        2.09150000      -1.47010000       0.88790000
C        0.76650000      -0.82850000       1.16110000
C       -0.29380000      -1.81300000       0.63170000
O       -1.19210000      -0.73950000       0.30250000
H        0.87260000       1.97190000      -0.14760000
H       -0.79430000       1.84480000      -0.73920000
H       -0.47270000       1.83430000       1.00500000
H       -0.33980000      -0.61540000      -2.03260000
H        1.40830000      -0.39780000      -1.71800000
H        0.14490000      -2.96450000      -1.30450000
H        2.70250000      -2.92270000      -0.60540000
H        3.00580000      -1.26680000       1.43110000
H        0.57750000      -0.39870000       2.14420000
H       -0.73050000      -2.62280000       1.21740000
