20
Properties=species:S:1:pos:R:3 gdb_83764=T pbc="F F F"
C       -0.20510000       1.51120000       0.03570000
N        0.07850000       0.08080000       0.03740000
C        1.13360000      -0.49370000      -0.85480000
C        2.31340000       0.46010000      -1.03260000
O        2.75550000       0.72430000       0.30560000
C        2.24640000      -0.31460000       1.11850000
C        1.59660000      -1.39580000       0.31550000
C        0.73230000      -0.51330000       1.20570000
C       -0.02770000      -0.80940000       2.46280000
H        0.65910000       2.15040000       0.26860000
H       -0.60670000       1.79900000      -0.94190000
H       -0.98640000       1.71110000       0.77680000
H        0.75620000      -0.94300000      -1.77620000
H        3.11640000      -0.00520000      -1.62570000
H        2.04200000       1.41230000      -1.49930000
H        2.86980000      -0.53400000       1.97810000
H        1.79930000      -2.45760000       0.31360000
H        0.58480000      -1.39130000       3.15870000
H       -0.32270000       0.11350000       2.97540000
H       -0.93550000      -1.38000000       2.24020000
