17
Properties=species:S:1:pos:R:3 gdb_24419=T pbc="F F F"
C       -0.01660000       1.39900000       0.00680000
C        1.41570000       1.96310000       0.03870000
C        2.20740000       1.26420000      -1.02570000
C        1.74380000       0.11710000      -1.58260000
C        0.47240000      -0.57620000      -1.22610000
O       -0.03300000      -0.02380000      -0.02040000
O        2.58990000      -0.34660000      -2.53750000
C        3.63220000       0.53610000      -2.58340000
C        3.45580000       1.53780000      -1.68300000
H       -0.57280000       1.68330000       0.90390000
H       -0.55070000       1.80040000      -0.86960000
H        1.38260000       3.04740000      -0.12310000
H        1.85930000       1.80410000       1.03000000
H       -0.27200000      -0.49030000      -2.03790000
H        0.62900000      -1.64440000      -1.03870000
H        4.40310000       0.30670000      -3.29990000
H        4.12480000       2.36690000      -1.51070000
