18
Properties=species:S:1:pos:R:3 gdb_91866=T pbc="F F F"
O       -0.62040000       1.17990000       0.87590000
C       -0.14740000       0.10240000       0.06640000
C        0.82980000      -0.83310000       0.81960000
N        0.06590000      -1.92500000       1.45200000
C       -1.09040000      -1.49210000       2.22710000
C       -1.27990000      -1.90780000       0.79840000
C       -1.34630000      -0.80880000      -0.24840000
C       -1.85740000      -3.24270000       0.49940000
O       -2.53230000      -3.48690000      -0.47050000
H        0.13270000       1.73510000       1.10270000
H        0.31030000       0.49950000      -0.84940000
H        1.53070000      -1.29340000       0.11430000
H        1.41570000      -0.29520000       1.57300000
H       -1.37460000      -2.17640000       3.02300000
H       -1.22650000      -0.43640000       2.43870000
H       -2.27660000      -0.23770000      -0.22240000
H       -1.25760000      -1.25680000      -1.24180000
H       -1.60770000      -4.02100000       1.25390000
