20
Properties=species:S:1:pos:R:3 gdb_73429=T pbc="F F F"
C       -0.02810000       1.45200000       0.08410000
C       -0.01830000      -0.06270000       0.00410000
C       -1.24950000      -0.65100000      -0.65810000
C       -1.20280000      -2.19460000      -0.72100000
N       -0.01020000      -2.80870000      -0.14600000
C        1.31110000      -2.23650000      -0.28030000
C        0.63060000      -2.31120000       1.05120000
C        0.65650000      -0.75240000       1.16590000
C        1.34830000      -0.67640000      -0.18770000
H        0.87690000       1.83360000       0.56790000
H       -0.08750000       1.89510000      -0.91670000
H       -0.89210000       1.80670000       0.65800000
H       -2.13750000      -0.31780000      -0.10730000
H       -1.34050000      -0.23020000      -1.66690000
H       -2.06090000      -2.62790000      -0.19730000
H       -1.26320000      -2.54020000      -1.75800000
H        2.10800000      -2.83840000      -0.70310000
H        0.78380000      -2.98380000       1.88800000
H        0.91830000      -0.23280000       2.07910000
H        2.21660000      -0.09020000      -0.46120000
