23
Properties=species:S:1:pos:R:3 gdb_83275=T pbc="F F F"
C       -0.39980000       1.44700000      -0.15780000
C       -0.03230000      -0.01590000      -0.04130000
C        1.33810000      -0.58500000      -0.32780000
C        2.57630000       0.23740000      -0.66960000
C        3.04480000       1.20660000       0.43300000
C        2.91680000       0.59190000       1.82910000
O        3.38040000       1.47490000       2.84390000
C        1.45370000       0.28180000       2.15030000
C        0.79470000      -0.59850000       1.09160000
H       -0.60440000       1.71310000      -1.20100000
H       -1.30570000       1.66520000       0.41960000
H        0.38210000       2.11900000       0.20100000
H       -0.84280000      -0.66620000      -0.36390000
H        1.32320000      -1.54210000      -0.84260000
H        3.38960000      -0.47420000      -0.85980000
H        2.43390000       0.78460000      -1.60990000
H        4.09080000       1.48260000       0.24430000
H        2.47550000       2.14280000       0.42040000
H        3.49080000      -0.35120000       1.85420000
H        4.29100000       1.71030000       2.63950000
H        1.40370000      -0.21030000       3.12580000
H        0.93250000       1.23960000       2.26630000
H        0.45850000      -1.56230000       1.46110000
