17
Properties=species:S:1:pos:R:3 gdb_4175=T pbc="F F F"
C       -0.09050000       1.61810000      -0.01140000
C        0.06210000       0.10070000      -0.00150000
C        0.71570000      -0.62190000      -1.20400000
C        2.16250000      -0.26780000      -1.32610000
C        1.75840000      -1.27960000      -0.27010000
C        1.12560000      -0.57370000       0.87420000
N        1.34030000      -0.68770000       2.11800000
O        0.43800000       0.11390000       2.85590000
H        0.85090000       2.11960000      -0.25420000
H       -0.83570000       1.92530000      -0.75290000
H       -0.41340000       1.97000000       0.97150000
H       -0.90190000      -0.36360000       0.23970000
H        0.16800000      -1.09400000      -2.00960000
H        2.67770000      -0.69820000      -2.17920000
H        2.53260000       0.71050000      -1.03450000
H        2.15070000      -2.28790000      -0.26090000
H        0.70600000      -0.06860000       3.76240000
