5
Properties=species:S:1:pos:R:3 gdb_184=T pbc="F F F"
F        0.00110000       0.07350000       0.00250000
C       -0.01690000       1.39480000       0.00970000
F        1.22280000       1.85220000       0.00030000
F       -0.65600000       1.83250000      -1.06090000
F       -0.63540000       1.82090000       1.09690000
