12
Properties=species:S:1:pos:R:3 gdb_129993=T pbc="F F F"
N       -0.02940000       1.28630000       0.23890000
C       -0.03780000      -0.04400000       0.01750000
N       -1.06940000      -0.84930000       0.03230000
C       -0.45720000      -2.04180000      -0.19880000
O       -1.19500000      -3.16690000      -0.27580000
C       -0.60030000      -4.36160000       0.08450000
O       -1.15800000      -5.39330000      -0.09310000
N        0.84130000      -2.02980000      -0.36520000
O        1.13650000      -0.64840000      -0.20090000
H        0.78250000       1.80710000      -0.04890000
H       -0.91900000       1.75470000       0.19060000
H        0.38790000      -4.21130000       0.54220000
