20
Properties=species:S:1:pos:R:3 gdb_38846=T pbc="F F F"
C       -0.00770000       1.56900000       0.01260000
C        1.49510000       1.94860000      -0.06300000
C        2.17970000       0.58450000       0.15520000
O        1.30060000      -0.33230000      -0.48720000
C        0.00390000       0.01290000       0.01000000
C       -0.17300000      -0.60030000       1.40960000
C        1.04580000      -0.30800000       2.28070000
N        2.24140000      -1.13940000       2.02540000
C        2.26070000       0.27640000       1.64470000
H       -0.48930000       1.96560000       0.91020000
H       -0.55760000       1.95460000      -0.84870000
H        1.75300000       2.34240000      -1.04900000
H        1.78480000       2.69400000       0.68280000
H        3.15780000       0.49240000      -0.32520000
H       -0.72730000      -0.40570000      -0.68590000
H       -1.07750000      -0.19590000       1.87830000
H       -0.30280000      -1.68380000       1.32180000
H        0.84400000      -0.04360000       3.31580000
H        2.76100000      -1.26850000       2.88990000
H        2.87180000       0.96460000       2.22640000
