18
Properties=species:S:1:pos:R:3 gdb_10531=T pbc="F F F"
C        0.22410000       1.37430000       0.20300000
O        0.18100000      -0.03600000       0.16670000
C        0.54910000      -0.56690000      -1.09640000
C        0.55460000      -2.07930000      -1.01370000
C       -0.55300000      -2.70010000      -0.16850000
O       -1.79880000      -2.05310000      -0.34790000
C        1.19810000      -2.82960000      -2.09860000
O        1.83280000      -2.69930000      -0.82300000
H        1.24010000       1.74900000       0.01000000
H       -0.45630000       1.82190000      -0.53790000
H       -0.08480000       1.68460000       1.20370000
H       -0.17000000      -0.23740000      -1.86330000
H        1.55070000      -0.22010000      -1.38990000
H       -0.68710000      -3.74930000      -0.44740000
H       -0.22830000      -2.67440000       0.88100000
H       -1.69630000      -1.18330000       0.05750000
H        0.83440000      -3.82590000      -2.34630000
H        1.68680000      -2.30060000      -2.91720000
