18
Properties=species:S:1:pos:R:3 gdb_15792=T pbc="F F F"
C        0.15140000       1.54420000      -0.05420000
C       -0.00640000       0.02460000      -0.02190000
O        0.63080000      -0.55520000      -1.17020000
C       -0.10390000      -0.70950000      -2.28890000
N        0.44080000      -1.12070000      -3.34960000
C        0.62570000      -0.59160000       1.21300000
C        1.08100000      -1.99990000       1.23430000
N        2.06180000      -0.89540000       1.24560000
H        1.21060000       1.81560000      -0.05340000
H       -0.31510000       1.96620000      -0.94930000
H       -0.32250000       1.99350000       0.82390000
H       -1.07500000      -0.23680000      -0.03850000
H       -1.16490000      -0.45800000      -2.15160000
H       -0.25390000      -1.20100000      -4.08910000
H        0.24840000      -0.15310000       2.13540000
H        1.02230000      -2.57210000       2.15570000
H        0.97790000      -2.57820000       0.32160000
H        2.43480000      -0.79490000       0.30320000
