21
Properties=species:S:1:pos:R:3 gdb_120953=T pbc="F F F"
C       -0.09600000       1.34090000      -0.03620000
O       -0.06400000      -0.06490000      -0.06100000
C        0.74340000      -0.57760000      -1.10150000
C        0.66730000      -2.09460000      -1.07030000
C       -0.75760000      -2.66770000      -1.37370000
C       -0.38600000      -3.46990000      -2.63680000
C        0.90090000      -4.22180000      -2.23110000
C        1.39140000      -2.75930000      -2.26720000
O        0.45660000      -2.51810000      -3.36750000
H        0.90510000       1.77140000       0.12790000
H       -0.49570000       1.75840000      -0.97420000
H       -0.74690000       1.64060000       0.78920000
H        0.39530000      -0.21170000      -2.08070000
H        1.78790000      -0.24130000      -0.97340000
H        1.06030000      -2.45300000      -0.11380000
H       -1.15530000      -3.29190000      -0.56970000
H       -1.48050000      -1.87840000      -1.58860000
H       -1.17820000      -3.91410000      -3.23930000
H        0.92530000      -4.77330000      -1.28740000
H        1.31040000      -4.80860000      -3.05370000
H        2.42070000      -2.47310000      -2.48730000
