23
Properties=species:S:1:pos:R:3 gdb_120761=T pbc="F F F"
C       -0.04650000       1.48320000       0.11370000
C       -0.18650000       0.00220000       0.42020000
O       -1.09890000      -0.56280000      -0.50810000
C       -1.30420000      -1.92650000      -0.32270000
C       -2.29760000      -2.38540000       0.72020000
C       -2.62780000      -2.48120000      -0.76060000
C       -3.66650000      -1.59320000      -1.36860000
C       -4.07640000      -1.78210000      -2.80810000
C       -5.03420000      -2.13970000      -1.69740000
H        0.65580000       1.95160000       0.80970000
H        0.32200000       1.63200000      -0.90520000
H       -1.01310000       1.98720000       0.20430000
H        0.78990000      -0.50390000       0.34150000
H       -0.54890000      -0.15400000       1.44820000
H       -0.41170000      -2.53590000      -0.47850000
H       -2.10040000      -3.29240000       1.28160000
H       -2.80460000      -1.60510000       1.27860000
H       -2.59260000      -3.48030000      -1.18930000
H       -3.62660000      -0.56750000      -1.01880000
H       -4.28070000      -0.90070000      -3.40590000
H       -3.61850000      -2.59510000      -3.36240000
H       -5.21800000      -3.19220000      -1.50680000
H       -5.89770000      -1.50410000      -1.53360000
