23
Properties=species:S:1:pos:R:3 gdb_121733=T pbc="F F F"
C        0.14660000       1.52710000       0.00830000
C        0.02780000       0.00060000       0.00160000
C       -1.42560000      -0.48390000       0.01270000
C       -1.54790000      -2.00710000       0.00600000
C       -2.98400000      -2.51470000       0.01710000
O       -3.93260000      -1.76060000       0.03040000
C       -3.16520000      -4.02450000       0.01060000
C       -4.62370000      -4.45680000       0.02210000
O       -4.64000000      -5.87740000       0.01460000
H        1.19320000       1.84720000       0.00010000
H       -0.34350000       1.96500000      -0.86820000
H       -0.32690000       1.95590000       0.89840000
H        0.54060000      -0.40300000      -0.88210000
H        0.55710000      -0.41210000       0.87110000
H       -1.94530000      -0.08640000       0.89230000
H       -1.96170000      -0.07740000      -0.85270000
H       -1.04500000      -2.43830000      -0.87180000
H       -1.02840000      -2.44730000       0.86960000
H       -2.65840000      -4.44300000      -0.86890000
H       -2.64190000      -4.45240000       0.87580000
H       -5.12230000      -4.04790000       0.91230000
H       -5.13910000      -4.03840000      -0.85390000
H       -5.55770000      -6.16400000       0.02200000
