19
Properties=species:S:1:pos:R:3 gdb_56318=T pbc="F F F"
C        0.00080000       1.39490000      -0.16580000
C        0.02220000      -0.12270000      -0.14260000
O        1.03470000      -0.75460000      -0.33340000
C       -1.31240000      -0.81050000       0.13600000
C       -1.20080000      -2.33230000       0.22000000
C       -2.55300000      -2.99080000       0.46330000
O       -2.40280000      -4.40540000       0.64040000
C       -2.75860000      -5.21140000      -0.37650000
O       -2.63940000      -6.39830000      -0.33590000
H        0.98810000       1.77510000      -0.42950000
H       -0.74200000       1.76130000      -0.88300000
H       -0.28950000       1.78320000       0.81730000
H       -1.72900000      -0.38960000       1.06200000
H       -2.01440000      -0.50620000      -0.65440000
H       -0.76060000      -2.72100000      -0.70380000
H       -0.51410000      -2.61200000       1.02460000
H       -3.01710000      -2.61840000       1.38210000
H       -3.24610000      -2.79060000      -0.36560000
H       -3.17730000      -4.65360000      -1.23840000
