20
Properties=species:S:1:pos:R:3 gdb_18470=T pbc="F F F"
C        0.76990000       0.61300000      -1.74570000
C        1.25650000      -0.68740000      -1.11540000
C        2.75800000      -1.12930000      -1.20980000
C        2.76070000      -1.39330000       0.30520000
C        2.46630000      -0.14230000       1.09330000
C        3.04810000       1.22520000       0.80820000
O        4.30650000       1.39070000       1.45200000
C        1.32440000      -0.85370000       0.41240000
H        1.34180000       1.48240000      -1.41140000
H        0.84410000       0.56610000      -2.83820000
H       -0.28140000       0.79400000      -1.49460000
H        0.64540000      -1.50690000      -1.50920000
H        2.89450000      -2.03270000      -1.80760000
H        3.46770000      -0.37650000      -1.56920000
H        3.18080000      -2.27600000       0.77290000
H        2.45770000      -0.33670000       2.16530000
H        3.13580000       1.41260000      -0.26970000
H        2.40130000       2.00720000       1.22080000
H        4.86810000       0.66350000       1.16330000
H        0.50660000      -1.24300000       1.00940000
