21
Properties=species:S:1:pos:R:3 gdb_36913=T pbc="F F F"
C       -0.00770000       1.52860000       0.27430000
C       -0.07750000       0.02060000       0.24980000
C       -1.26100000      -0.70700000      -0.22340000
O       -0.08950000      -0.61230000      -1.03570000
C        1.39930000       2.08140000       0.01920000
C        1.97900000       1.77760000      -1.39270000
C        2.79520000       3.00880000      -1.70360000
C        2.54010000       4.00720000      -0.86010000
C        1.50410000       3.62500000       0.16990000
H       -0.70390000       1.92780000      -0.47400000
H       -0.36220000       1.87240000       1.25600000
H        0.56400000      -0.48570000       0.97480000
H       -1.48290000      -1.70030000       0.16460000
H       -2.12430000      -0.14730000      -0.58220000
H        2.08060000       1.63620000       0.75600000
H        2.56520000       0.85250000      -1.41060000
H        1.17970000       1.63600000      -2.13310000
H        3.47530000       3.06100000      -2.54710000
H        2.97800000       4.99830000      -0.90870000
H        0.54270000       4.11580000      -0.04760000
H        1.77400000       3.92480000       1.18940000
