20
Properties=species:S:1:pos:R:3 gdb_118356=T pbc="F F F"
C        0.48190000       1.45190000       0.33240000
C       -0.06800000       0.08140000      -0.01830000
O        0.92380000      -0.62470000      -0.75560000
C        0.54820000      -1.93020000      -1.13190000
C       -0.40750000      -1.90650000      -2.32330000
O       -1.17760000      -2.79050000      -2.59050000
C        1.79840000      -2.69650000      -1.55310000
C        2.89270000      -2.00510000      -2.28000000
N        3.07040000      -2.43700000      -0.87960000
H        1.38890000       1.35990000       0.93640000
H        0.72730000       2.01210000      -0.57410000
H       -0.25810000       2.02090000       0.90250000
H       -0.32380000      -0.48470000       0.89080000
H       -0.99030000       0.17470000      -0.61270000
H        0.05910000      -2.46060000      -0.30000000
H       -0.29200000      -0.99880000      -2.95990000
H        1.59410000      -3.74240000      -1.76620000
H        3.48490000      -2.55020000      -3.00880000
H        2.77810000      -0.94310000      -2.47230000
H        2.94800000      -1.62280000      -0.28010000
