21
Properties=species:S:1:pos:R:3 gdb_57663=T pbc="F F F"
C        0.13920000       1.61230000       0.17890000
C        0.04060000       0.09320000       0.01770000
O        0.60830000      -0.44790000       1.22120000
C       -1.44690000      -0.33990000      -0.08130000
C       -2.27810000       0.08070000       1.11120000
O       -3.34770000       0.63200000       1.03550000
C        0.78790000      -0.45820000      -1.19240000
C        1.06580000       0.33010000      -2.44830000
C        2.19930000      -0.04950000      -1.53080000
H        1.17990000       1.94420000       0.17710000
H       -0.40540000       2.13450000      -0.61130000
H       -0.29480000       1.90430000       1.13900000
H        0.85920000      -1.36120000       1.04720000
H       -1.91320000       0.04400000      -0.99330000
H       -1.47660000      -1.43890000      -0.12410000
H       -1.82530000      -0.17000000       2.09400000
H        0.56410000      -1.51130000      -1.36030000
H        0.97170000      -0.18040000      -3.40020000
H        0.77100000       1.37270000      -2.47560000
H        2.66060000       0.73570000      -0.94300000
H        2.88820000      -0.82350000      -1.85010000
