14
Properties=species:S:1:pos:R:3 gdb_5134=T pbc="F F F"
C       -0.01690000      -1.25030000       0.29850000
C        0.00730000      -0.06110000       0.13240000
C        0.03680000       1.38820000      -0.06710000
C        1.41770000       1.95900000      -0.16340000
C        2.10010000       2.57510000      -1.16530000
C        3.38960000       2.90740000      -0.63250000
C        3.38760000       2.46610000       0.65070000
O        2.19380000       1.88760000       0.95340000
H       -0.03410000      -2.30160000       0.44570000
H       -0.49750000       1.64590000      -0.98840000
H       -0.50880000       1.87570000       0.75250000
H        1.73370000       2.76630000      -2.16180000
H        4.20050000       3.40550000      -1.14010000
H        4.11280000       2.48270000       1.44720000
