17
Properties=species:S:1:pos:R:3 gdb_38077=T pbc="F F F"
O       -0.02940000       1.45860000       0.04060000
C        1.37230000       1.84250000       0.02200000
C        1.81110000       1.71820000       1.47010000
C        1.81050000       0.40850000       1.74820000
C        1.46310000      -0.32460000       0.48520000
C        0.01120000       0.00780000      -0.03560000
C        0.13380000      -0.28320000      -1.52070000
C        1.35890000       0.12050000      -1.87940000
C        2.06470000       0.58860000      -0.63990000
H        1.47050000       2.80620000      -0.47490000
H        1.92410000       2.54670000       2.15750000
H        1.95800000      -0.05950000       2.71320000
H        1.70990000      -1.38330000       0.41680000
H       -0.83720000      -0.40100000       0.51060000
H       -0.68190000      -0.59190000      -2.16190000
H        1.76600000       0.17830000      -2.88090000
H        3.15130000       0.66080000      -0.65930000
