25
Properties=species:S:1:pos:R:3 gdb_110101=T pbc="F F F"
C        0.39840000       1.51680000       0.12640000
C        0.11150000       0.01500000       0.00200000
C        0.75340000      -0.60320000      -1.22690000
C        2.00220000      -1.46970000      -1.13290000
O        2.52510000      -1.80630000       0.11520000
C        3.54210000      -0.92640000       0.54870000
C        0.69500000      -2.10010000      -1.52400000
C        0.01260000      -3.03700000      -0.54390000
C        0.53070000      -2.50710000      -2.97750000
H        1.47350000       1.71610000       0.19020000
H        0.01520000       2.06520000      -0.74150000
H       -0.07350000       1.93710000       1.02010000
H        0.46420000      -0.50130000       0.90010000
H       -0.97530000      -0.13680000      -0.03400000
H        0.70200000       0.03190000      -2.11040000
H        2.76570000      -1.35380000      -1.90550000
H        4.38910000      -0.91440000      -0.15430000
H        3.17560000       0.10300000       0.66390000
H        3.89300000      -1.29160000       1.51700000
H        0.24050000      -2.78890000       0.49280000
H       -1.07530000      -3.01380000      -0.67690000
H        0.34280000      -4.06810000      -0.71410000
H        0.92070000      -3.51710000      -3.15160000
H       -0.52700000      -2.50420000      -3.26760000
H        1.05930000      -1.82430000      -3.65060000
