18
Properties=species:S:1:pos:R:3 gdb_1540=T pbc="F F F"
C        0.04730000       1.59980000       0.04340000
C       -0.01330000       0.07010000      -0.00490000
C        0.64630000      -0.49740000      -1.26670000
C        0.68710000      -2.04460000      -1.31210000
C       -0.70540000      -2.70050000      -1.39920000
C        1.51840000      -2.48500000      -2.43860000
N        2.16700000      -2.82290000      -3.33380000
H        1.08310000       1.95580000       0.02920000
H       -0.46650000       2.04310000      -0.81640000
H       -0.42680000       1.98640000       0.95050000
H        0.48380000      -0.34560000       0.88170000
H       -1.05980000      -0.25100000       0.05100000
H        0.12480000      -0.13200000      -2.16020000
H        1.67370000      -0.12180000      -1.33540000
H        1.18280000      -2.40040000      -0.39870000
H       -0.61990000      -3.78800000      -1.46220000
H       -1.29790000      -2.45590000      -0.51480000
H       -1.24240000      -2.34910000      -2.28520000
