17
Properties=species:S:1:pos:R:3 gdb_49853=T pbc="F F F"
O       -0.12670000      -0.01860000       0.03860000
C       -0.00150000       1.17700000      -0.00880000
C        1.32090000       1.91300000       0.02800000
C        1.53050000       2.83830000      -1.19330000
C        2.33980000       4.03820000      -0.66130000
O        3.07170000       4.73030000      -1.32050000
C        2.10760000       4.13730000       0.81260000
C        0.64610000       4.11150000       1.24030000
C        1.43980000       2.84320000       1.24730000
H       -0.89170000       1.84580000      -0.08320000
H        2.11270000       1.15990000       0.07300000
H        2.05990000       2.35700000      -2.01640000
H        0.57830000       3.20610000      -1.59810000
H        2.82910000       4.67260000       1.41560000
H        0.43080000       4.56860000       2.19900000
H       -0.12030000       4.27740000       0.49140000
H        1.68620000       2.39120000       2.20050000
