16
Properties=species:S:1:pos:R:3 gdb_14854=T pbc="F F F"
O       -0.10800000       1.44650000      -0.15530000
C        0.04540000       0.03500000      -0.11010000
C       -1.34340000      -0.54770000       0.06460000
C       -2.25140000      -0.46610000      -1.17690000
O       -2.20300000      -1.90010000      -1.36630000
C       -1.48630000      -2.08870000      -0.12200000
C       -0.28540000      -2.89860000      -0.25340000
C        0.70400000      -3.57570000      -0.34420000
H        0.75250000       1.83740000      -0.33200000
H        0.49700000      -0.35270000      -1.03560000
H        0.69080000      -0.27790000       0.72500000
H       -1.78600000      -0.16800000       0.98730000
H       -3.27320000      -0.11590000      -0.98860000
H       -1.83640000       0.07720000      -2.03250000
H       -2.14280000      -2.54190000       0.63400000
H        1.57500000      -4.17750000      -0.43070000
