17
Properties=species:S:1:pos:R:3 gdb_94963=T pbc="F F F"
O       -0.00780000       1.32730000       0.33320000
C       -0.06020000      -0.05400000      -0.00610000
C        0.61700000      -0.94220000       1.05630000
C       -0.39630000      -0.98250000       2.22020000
C       -1.76670000      -0.99660000       1.51810000
C       -1.53900000      -0.42090000       0.10110000
O       -1.82410000      -1.73390000      -0.48620000
C       -2.07370000      -2.28640000       0.75090000
O       -2.39640000      -3.40440000       0.99070000
H        0.91690000       1.58800000       0.38420000
H        0.32590000      -0.23320000      -1.01840000
H        0.77450000      -1.94470000       0.64400000
H        1.59740000      -0.55570000       1.35100000
H       -0.25880000      -1.84110000       2.88160000
H       -0.31610000      -0.07330000       2.82210000
H       -2.59380000      -0.61810000       2.11780000
H       -2.21030000       0.34170000      -0.29180000
