17
Properties=species:S:1:pos:R:3 gdb_81304=T pbc="F F F"
O        0.00160000       1.34410000      -0.08460000
C        0.06580000      -0.06060000       0.01450000
C        0.12500000      -0.60000000       1.47440000
C       -1.41170000      -0.41190000       1.53640000
C       -1.38680000      -0.62810000      -0.01470000
C       -1.29070000      -2.11650000      -0.25330000
O       -1.92190000      -2.73210000      -1.07540000
C       -0.31220000      -2.82660000       0.69650000
O        0.51010000      -1.96460000       1.47840000
H        0.87840000       1.69680000       0.10150000
H        0.79390000      -0.49110000      -0.68640000
H        0.76620000      -0.09360000       2.19910000
H       -1.98720000      -1.10490000       2.15380000
H       -1.67700000       0.61720000       1.77530000
H       -2.12050000      -0.15160000      -0.66360000
H       -0.91010000      -3.47530000       1.35330000
H        0.33430000      -3.48070000       0.10190000
