20
Properties=species:S:1:pos:R:3 gdb_72141=T pbc="F F F"
C        0.04290000       1.49190000       0.00960000
C        0.00520000      -0.01460000      -0.06240000
C        0.80240000      -0.74030000      -1.13880000
C        0.38210000      -2.12530000      -0.63430000
C        0.86100000      -2.04330000       0.82630000
N        0.33120000      -0.72150000       1.27960000
C       -1.15370000      -0.88290000       1.48830000
C       -1.36090000      -0.77560000      -0.02420000
O       -1.05430000      -2.03610000      -0.64230000
H        1.06250000       1.83810000       0.20470000
H       -0.29590000       1.93270000      -0.93420000
H       -0.59590000       1.87560000       0.81070000
H        0.43690000      -0.52920000      -2.14680000
H        1.87780000      -0.55230000      -1.08160000
H        0.68040000      -3.00190000      -1.20980000
H        0.47530000      -2.84840000       1.45650000
H        1.95550000      -2.05450000       0.88620000
H       -1.45960000      -1.81870000       1.96350000
H       -1.55090000      -0.03610000       2.05680000
H       -2.28250000      -0.37870000      -0.45990000
