18
Properties=species:S:1:pos:R:3 gdb_56840=T pbc="F F F"
O        0.32280000       1.25390000      -0.32490000
C       -0.06840000      -0.10450000      -0.11700000
C        0.28470000      -0.95620000      -1.25420000
C        0.63000000      -1.63160000      -2.18660000
C        0.58040000      -0.61930000       1.17260000
C        0.08740000      -0.20180000       2.57910000
C       -1.07450000      -1.18850000       2.33800000
N        0.12780000      -1.97230000       1.76910000
C        0.84800000      -1.46590000       3.03640000
H        1.22400000       1.24600000      -0.66660000
H       -1.15720000      -0.06650000      -0.02460000
H        0.91310000      -2.23830000      -3.01120000
H        1.66760000      -0.59700000       1.02840000
H        0.06880000       0.79570000       3.02940000
H       -1.51940000      -1.66900000       3.21330000
H       -1.84680000      -0.94810000       1.60670000
H        1.93830000      -1.47580000       2.95250000
H        0.51170000      -1.96540000       3.94850000
