22
Properties=species:S:1:pos:R:3 gdb_112264=T pbc="F F F"
C       -0.09960000       1.65200000      -0.16230000
C       -0.04390000       0.19230000       0.30070000
C       -1.34160000      -0.54460000       0.03390000
O       -1.60810000      -0.67520000      -1.41050000
C       -1.63480000      -2.04950000      -1.32580000
N       -1.78100000      -2.91650000      -2.22220000
C       -1.41080000      -2.09270000       0.17390000
C       -0.21260000      -2.89210000       0.68780000
C       -0.45920000      -4.40310000       0.61120000
H        0.85180000       2.15900000       0.02160000
H       -0.31430000       1.70700000      -1.23330000
H       -0.88290000       2.20640000       0.36620000
H        0.77880000      -0.32680000      -0.20290000
H        0.16160000       0.14310000       1.37780000
H       -2.18400000      -0.02260000       0.50150000
H       -1.89400000      -2.48380000      -3.14090000
H       -2.31610000      -2.41120000       0.70140000
H        0.68050000      -2.63850000       0.10640000
H       -0.00630000      -2.59680000       1.72430000
H        0.41880000      -4.95950000       0.95290000
H       -1.30720000      -4.69550000       1.24050000
H       -0.68450000      -4.70350000      -0.41550000
