21
Properties=species:S:1:pos:R:3 gdb_113880=T pbc="F F F"
C        0.00490000       1.46220000       0.35990000
C        0.10510000      -0.04360000       0.18900000
O        1.14800000      -0.63640000       0.33740000
C       -1.18980000      -0.75910000      -0.19910000
C       -1.08550000      -2.26470000      -0.10290000
C       -1.58860000      -3.00660000       1.11020000
C       -2.27570000      -3.18590000      -0.22900000
C       -3.68990000      -2.69330000      -0.42700000
O       -4.65240000      -3.64640000       0.00070000
H        1.00110000       1.89180000       0.47100000
H       -0.51060000       1.92180000      -0.49020000
H       -0.58850000       1.69240000       1.25290000
H       -2.00670000      -0.35900000       0.41270000
H       -1.42080000      -0.44120000      -1.22800000
H       -0.16000000      -2.64210000      -0.52440000
H       -0.99240000      -3.81710000       1.51350000
H       -2.11360000      -2.42440000       1.86390000
H       -2.08450000      -4.12720000      -0.73810000
H       -3.83630000      -1.72870000       0.08480000
H       -3.89710000      -2.52810000      -1.49040000
H       -4.42020000      -3.89680000       0.90140000
