14
Properties=species:S:1:pos:R:3 gdb_9083=T pbc="F F F"
N       -0.35400000       1.28220000       0.36670000
C       -0.17100000      -0.12260000       0.01320000
C       -1.54150000      -0.82320000      -0.08670000
O       -2.13290000      -0.90110000       1.19870000
C       -2.96240000       0.10310000       1.57730000
O       -3.41920000       0.16730000       2.67550000
C        0.58820000      -0.33100000      -1.23640000
N        1.16320000      -0.45200000      -2.23200000
H        0.50890000       1.68140000       0.71970000
H       -0.62080000       1.82430000      -0.44970000
H        0.37450000      -0.60910000       0.82890000
H       -2.18630000      -0.28070000      -0.79050000
H       -1.42170000      -1.84720000      -0.44630000
H       -3.17560000       0.81260000       0.75830000
