18
Properties=species:S:1:pos:R:3 gdb_118942=T pbc="F F F"
C        0.08230000       0.72200000       0.52010000
O       -0.43500000       0.17680000      -0.69280000
C        0.50430000      -0.52190000      -1.48210000
C        0.57780000      -2.00310000      -1.07120000
O       -0.70940000      -2.49970000      -0.85420000
C        1.44040000      -2.90090000      -1.98560000
O        2.40080000      -3.10420000      -0.90240000
C        1.63750000      -2.37450000      -0.01930000
N        1.80080000      -2.13990000       1.20130000
H        0.45670000      -0.05530000       1.19480000
H        0.89310000       1.43240000       0.30660000
H       -0.74360000       1.25930000       0.99170000
H        0.12830000      -0.47790000      -2.51110000
H        1.49600000      -0.04990000      -1.45080000
H       -1.22550000      -1.74910000      -0.52380000
H        0.95140000      -3.83570000      -2.26580000
H        1.91460000      -2.42730000      -2.84950000
H        2.63880000      -2.59460000       1.56770000
