17
Properties=species:S:1:pos:R:3 gdb_114154=T pbc="F F F"
C        0.11550000       1.31800000       0.11530000
O       -0.29020000       0.00580000      -0.21430000
C        0.50740000      -0.59120000      -1.18460000
C        1.93620000      -1.14870000      -0.79840000
C        1.46380000      -2.51820000      -1.30770000
N        0.31690000      -2.89030000      -0.43780000
C        0.07670000      -2.00000000      -1.58270000
C        2.21100000      -3.48930000      -2.03220000
N        2.83080000      -4.27200000      -2.61880000
H        1.12550000       1.33800000       0.55020000
H        0.10350000       1.97900000      -0.76530000
H       -0.59310000       1.69770000       0.85400000
H        0.59250000       0.04670000      -2.07780000
H        2.74630000      -0.70790000      -1.37980000
H        2.17250000      -1.14210000       0.26660000
H        0.00660000      -3.82370000      -0.70970000
H       -0.60930000      -2.27760000      -2.37310000
