19
Properties=species:S:1:pos:R:3 gdb_38603=T pbc="F F F"
C        0.00330000       1.55070000      -0.11530000
C        1.30980000       0.79980000      -0.03490000
C        2.12810000       0.77020000       1.24900000
C        1.43730000       0.01040000       2.37790000
C       -0.09310000       0.14510000       2.62230000
O       -0.07160000      -1.15290000       3.32480000
C        0.73460000      -1.35210000       2.10340000
C       -0.36400000      -0.60590000       1.28770000
C        0.00380000       0.04140000      -0.02130000
H       -0.32650000       2.11220000       0.75360000
H       -0.25870000       2.00870000      -1.06260000
H        1.88840000       0.76900000      -0.95230000
H        3.09140000       0.28300000       1.05240000
H        2.36900000       1.78710000       1.58590000
H        2.01200000       0.00620000       3.30690000
H       -0.65720000       0.95470000       3.08850000
H        1.17170000      -2.33910000       1.94320000
H       -1.32550000      -1.12350000       1.28050000
H       -0.27570000      -0.51430000      -0.91110000
