17
Properties=species:S:1:pos:R:3 gdb_64538=T pbc="F F F"
O        0.03040000       1.47150000      -0.10380000
C       -0.07530000       0.09590000       0.00320000
C        0.99930000      -0.58990000      -0.77060000
O        1.82700000       0.03900000      -1.38970000
C       -0.44960000      -0.69870000       1.24380000
C       -1.62350000      -0.12960000       2.08440000
C       -2.23200000       1.14450000       1.56110000
C       -2.52110000      -0.15700000       0.86100000
C       -1.35480000      -0.72550000       0.01030000
H        0.80590000       1.61370000      -0.67380000
H        0.99860000      -1.69730000      -0.74720000
H        0.19700000      -1.47980000       1.62880000
H       -1.83090000      -0.51230000       3.07490000
H       -3.06540000       1.49450000       2.16460000
H       -1.63830000       1.92370000       1.10810000
H       -3.51970000      -0.56380000       0.77290000
H       -1.50930000      -1.53000000      -0.70050000
