12
Properties=species:S:1:pos:R:3 gdb_131999=T pbc="F F F"
N       -0.03070000       1.01760000      -0.00740000
H       -0.07290000       0.05260000      -0.30340000
H        0.71590000       1.53150000      -0.45200000
C       -1.26430000       1.61520000       0.00180000
N       -1.46670000       2.94910000       0.17100000
N       -2.79690000       3.22750000       0.20410000
C       -3.29890000       2.02230000       0.05590000
N       -2.42850000       0.99500000      -0.07760000
N       -4.74660000       1.81870000       0.03170000
O       -5.44760000       2.81310000       0.13540000
O       -5.13370000       0.66770000      -0.09010000
H       -0.80120000       3.69400000       0.30220000
