18
Properties=species:S:1:pos:R:3 gdb_58173=T pbc="F F F"
C       -0.06020000       1.46020000       0.43440000
C       -0.14890000      -0.04440000       0.19450000
O        0.19400000      -0.77770000       1.36510000
C       -1.53400000      -0.49610000      -0.35340000
C       -1.81550000       0.01630000      -1.77060000
C       -1.56470000      -2.01990000      -0.32530000
O       -1.24010000      -2.72580000      -1.24560000
C       -2.04440000      -2.62020000       0.93910000
N       -2.47060000      -3.06400000       1.91830000
H        0.91910000       1.70170000       0.85600000
H       -0.18610000       2.03170000      -0.48880000
H       -0.83070000       1.78840000       1.14310000
H        0.60570000      -0.34380000      -0.54250000
H       -0.36370000      -0.48050000       2.09370000
H       -2.30270000      -0.13390000       0.34270000
H       -1.05200000      -0.33890000      -2.46680000
H       -2.78380000      -0.34290000      -2.12930000
H       -1.83320000       1.10800000      -1.79250000
