14
Properties=species:S:1:pos:R:3 gdb_128642=T pbc="F F F"
C        0.02570000       1.36340000       0.00720000
O       -0.04150000      -0.07360000       0.00350000
C       -1.26230000      -0.58220000       0.01110000
N       -2.40760000       0.04340000       0.02160000
C       -3.30420000      -1.00420000       0.02510000
N       -2.79390000      -2.20870000       0.01770000
N       -1.43900000      -1.94750000       0.00830000
C       -0.44800000      -2.94230000      -0.00220000
O       -0.67050000      -4.11730000      -0.00410000
H        1.08810000       1.60350000      -0.00040000
H       -0.46980000       1.76710000      -0.87860000
H       -0.45580000       1.76180000       0.90320000
H       -4.37250000      -0.84460000       0.03360000
H        0.55490000      -2.48490000      -0.00830000
