17
Properties=species:S:1:pos:R:3 gdb_37050=T pbc="F F F"
C       -0.00800000       1.52010000      -0.16770000
C        1.30790000       0.79990000       0.01930000
C        2.16430000       0.79720000       1.24850000
O        1.78560000      -0.32360000       2.07190000
C        0.42310000      -0.32530000       2.36150000
O       -0.42070000      -0.60060000       1.23090000
C        0.02410000       0.02850000       0.08360000
C        0.55810000      -0.72330000      -1.13150000
O        1.72510000       0.15320000      -1.19160000
H       -0.34040000       2.12100000       0.67290000
H       -0.26130000       1.91150000      -1.14830000
H        3.21610000       0.65170000       0.99640000
H        2.05760000       1.72630000       1.82630000
H        0.23780000      -1.13410000       3.06950000
H        0.12360000       0.64270000       2.80200000
H        0.85170000      -1.74850000      -0.88480000
H       -0.02750000      -0.70280000      -2.05700000
