14
Properties=species:S:1:pos:R:3 gdb_124048=T pbc="F F F"
C        0.04020000       1.48920000       0.12310000
O        1.32710000       2.11750000      -0.06970000
C        2.14780000       1.45210000      -0.89570000
N        3.21970000       1.97100000      -1.46830000
N        3.72400000       0.90400000      -2.11460000
N        3.06300000      -0.24240000      -2.00320000
C        2.03880000       0.08290000      -1.21370000
C        0.96520000      -0.70170000      -0.65140000
C        0.03080000      -0.02010000       0.02360000
H       -0.28830000       1.81440000       1.11430000
H       -0.66510000       1.91770000      -0.60850000
H        4.55180000       0.98410000      -2.67990000
H        0.94850000      -1.78040000      -0.75210000
H       -0.80860000      -0.51990000       0.49600000
