18
Properties=species:S:1:pos:R:3 gdb_112490=T pbc="F F F"
C        0.10190000       1.42430000      -0.27940000
C       -0.02820000      -0.08090000      -0.02390000
C        0.73030000      -0.53970000       1.22080000
C        0.78280000      -2.05680000       1.58610000
C        2.31720000      -1.95120000       1.88000000
C        3.21210000      -2.96620000       1.36650000
N        3.91450000      -3.77320000       0.92770000
C        2.26450000      -0.56090000       1.15840000
O        3.09790000       0.12490000       0.65440000
H        1.15010000       1.70830000      -0.40300000
H       -0.44060000       1.71260000      -1.18430000
H       -0.30880000       2.00350000       0.55500000
H       -1.08370000      -0.35610000       0.09250000
H        0.34300000      -0.63950000      -0.89200000
H        0.42170000       0.05440000       2.09190000
H        0.16730000      -2.38490000       2.42290000
H        0.58730000      -2.69160000       0.71980000
H        2.50930000      -1.78850000       2.94630000
