20
Properties=species:S:1:pos:R:3 gdb_97656=T pbc="F F F"
C       -0.19710000       1.51370000       0.11960000
C       -0.13080000       0.01080000       0.24470000
N        1.07330000      -0.66470000      -0.25010000
C        0.76910000      -0.71960000       1.20620000
C        1.75360000      -0.00050000       2.11080000
C        0.25940000      -1.96380000       1.72900000
C       -0.14000000      -3.01760000       2.16150000
C       -0.67030000      -4.26080000       2.71840000
O       -2.07680000      -4.24020000       2.92600000
H        0.78060000       1.97580000       0.26670000
H       -0.54600000       1.78950000      -0.88140000
H       -0.89850000       1.93510000       0.84760000
H       -1.07930000      -0.49130000       0.06030000
H        0.83220000      -1.55290000      -0.68240000
H        2.14550000       0.89460000       1.62590000
H        1.27710000       0.28430000       3.05400000
H        2.59810000      -0.65660000       2.34200000
H       -0.48580000      -5.09270000       2.02930000
H       -0.13140000      -4.49810000       3.64980000
H       -2.27920000      -3.44830000       3.43510000
