15
Properties=species:S:1:pos:R:3 gdb_28729=T pbc="F F F"
N       -0.17210000       1.50600000       0.08680000
C       -0.07580000       0.10340000       0.00520000
C       -0.90570000      -0.87080000      -0.49830000
C       -0.23730000      -2.12940000      -0.36330000
C        0.97180000      -1.86390000       0.22040000
N        1.07790000      -0.51360000       0.43880000
O        1.99850000      -2.67660000       0.62600000
C        2.57820000      -3.47050000      -0.32470000
O        3.41470000      -4.27100000      -0.05050000
H       -0.89730000       1.84900000      -0.53090000
H       -0.38990000       1.82650000       1.02650000
H       -1.89470000      -0.70980000      -0.89860000
H       -0.61680000      -3.10460000      -0.62310000
H        1.89790000      -0.04050000       0.77870000
H        2.16590000      -3.26950000      -1.32900000
