19
Properties=species:S:1:pos:R:3 gdb_117472=T pbc="F F F"
C       -0.92360000       1.12200000       0.86560000
O       -1.15170000      -0.24400000       0.59620000
C       -0.43040000      -0.71330000      -0.51300000
C       -0.73560000      -2.18500000      -0.78730000
O       -0.10690000      -2.77670000      -1.63250000
C       -1.83590000      -2.83340000       0.03510000
C       -2.16760000      -4.25260000      -0.43510000
C       -2.97770000      -5.00570000       0.59230000
O       -4.03090000      -5.54990000       0.38490000
H       -1.52770000       1.38690000       1.73580000
H        0.13560000       1.31900000       1.09100000
H       -1.21970000       1.75650000       0.01620000
H       -0.68000000      -0.14770000      -1.42780000
H        0.65780000      -0.61500000      -0.36840000
H       -1.50160000      -2.82120000       1.08270000
H       -2.71410000      -2.17840000       0.02380000
H       -2.70700000      -4.24890000      -1.38510000
H       -1.22530000      -4.79450000      -0.59300000
H       -2.51250000      -5.02960000       1.60770000
