18
Properties=species:S:1:pos:R:3 gdb_74537=T pbc="F F F"
C       -0.09620000       1.50520000       0.00650000
C        0.01710000       0.01920000      -0.00610000
C       -0.04110000      -0.85410000      -1.02600000
C        0.11230000      -2.16850000      -0.29640000
C        0.09400000      -3.69950000      -0.17590000
C        0.23310000      -3.14860000       1.27260000
C        1.16170000      -1.99040000       0.85290000
C        0.18660000      -0.86610000       1.25050000
N       -0.79030000      -2.03160000       0.96400000
H        0.79080000       1.97070000       0.45520000
H       -0.21520000       1.90710000      -1.00330000
H       -0.95570000       1.83150000       0.60580000
H       -0.18380000      -0.67440000      -2.08110000
H       -0.85280000      -4.19230000      -0.41170000
H        0.95000000      -4.24010000      -0.58660000
H        0.20180000      -3.70590000       2.20890000
H        2.25440000      -1.97390000       0.76290000
H        0.15220000      -0.38600000       2.23130000
