21
Properties=species:S:1:pos:R:3 gdb_87888=T pbc="F F F"
C       -0.21020000       1.51510000       0.06120000
C       -0.03550000       0.03120000      -0.01430000
C       -0.11630000      -0.74130000      -1.09910000
C        0.09490000      -2.20540000      -0.81000000
C        0.48360000      -2.20590000       0.67640000
C        0.29440000      -3.43290000       1.54250000
C        1.67880000      -2.99700000       1.13330000
O        2.37680000      -3.72220000       0.16310000
C        0.24430000      -0.79340000       1.22570000
H        0.68880000       2.00240000       0.46060000
H       -0.42180000       1.94710000      -0.92090000
H       -1.03330000       1.78500000       0.73580000
H       -0.32860000      -0.37460000      -2.09850000
H       -0.82000000      -2.78640000      -0.99670000
H        0.87860000      -2.65650000      -1.42810000
H       -0.01020000      -3.30270000       2.57690000
H       -0.09990000      -4.32230000       1.05940000
H        2.31070000      -2.53930000       1.89650000
H        2.59860000      -4.58180000       0.53490000
H        1.10710000      -0.41250000       1.79010000
H       -0.61010000      -0.75720000       1.91860000
