16
Properties=species:S:1:pos:R:3 gdb_47298=T pbc="F F F"
N       -0.05380000       1.22280000      -0.83370000
C        0.05970000       0.17220000      -0.13740000
C       -1.20310000      -0.55840000       0.27570000
O       -1.39020000      -0.75040000       1.68330000
C       -0.68000000      -1.69350000       2.35350000
O       -1.00880000      -1.99760000       3.46510000
C        0.55530000      -2.23890000       1.65620000
C        1.55400000      -1.13290000       1.29830000
O        1.27470000      -0.39560000       0.10430000
H        0.87180000       1.57000000      -1.09700000
H       -2.03890000       0.06030000      -0.04370000
H       -1.25940000      -1.52040000      -0.24790000
H        1.02610000      -2.92660000       2.36110000
H        0.29510000      -2.80970000       0.75830000
H        1.65870000      -0.43400000       2.13810000
H        2.53290000      -1.57830000       1.10930000
