17
Properties=species:S:1:pos:R:3 gdb_122733=T pbc="F F F"
O       -0.12470000       1.44320000      -0.06690000
C        0.01200000       0.02890000       0.01230000
C       -1.39090000      -0.55490000       0.00710000
N       -2.05320000      -0.22460000      -1.24970000
C       -3.46330000      -0.59480000      -1.25910000
C       -4.11290000      -0.20670000      -2.50430000
C       -4.65800000       0.13200000      -3.52740000
C       -5.27310000       0.51130000      -4.68570000
N       -5.79780000       0.83450000      -5.67050000
H        0.73620000       1.82480000      -0.25960000
H        0.57100000      -0.36520000      -0.84810000
H        0.53270000      -0.27260000       0.93330000
H       -1.32800000      -1.64600000       0.10730000
H       -1.93510000      -0.17540000       0.89190000
H       -1.95750000       0.77510000      -1.40000000
H       -3.53970000      -1.68600000      -1.14990000
H       -4.04250000      -0.16650000      -0.41720000
