18
Properties=species:S:1:pos:R:3 gdb_73035=T pbc="F F F"
O       -0.17530000       1.39610000      -0.08660000
C       -0.00360000       0.03200000       0.01480000
C       -0.88880000      -0.99600000      -0.69400000
O       -0.89330000      -1.84530000       0.49350000
C       -0.13480000      -0.86820000       1.21960000
C        1.22780000      -0.63240000       0.60410000
C        2.10680000      -1.65280000      -0.05730000
C        2.62060000      -2.81590000       0.71530000
N        1.64750000      -3.01740000      -0.36570000
H        0.51140000       1.75070000      -0.66170000
H       -1.89580000      -0.61370000      -0.88850000
H       -0.49140000      -1.51240000      -1.57330000
H       -0.39400000      -0.69910000       2.25800000
H        1.77660000       0.10090000       1.19730000
H        2.75700000      -1.23870000      -0.82820000
H        3.61820000      -3.20070000       0.52140000
H        2.28410000      -2.92200000       1.74400000
H        0.71870000      -3.14520000       0.02870000
