10
Properties=species:S:1:pos:R:3 gdb_133442=T pbc="F F F"
F        0.01270000       0.09810000       0.00410000
C       -0.02030000       1.41190000       0.01090000
N       -1.15110000       1.99590000       0.02820000
O       -1.12460000       3.37180000       0.03480000
C        0.08580000       4.11140000       0.02340000
N        0.04140000       5.36810000       0.03060000
N        1.28500000       3.41070000       0.00460000
C        1.23400000       2.14980000      -0.00120000
F        2.33260000       1.43250000      -0.01870000
H       -0.92210000       5.70130000       0.04450000
