23
Properties=species:S:1:pos:R:3 gdb_122195=T pbc="F F F"
C       -1.23410000       0.86110000       0.39830000
C        0.03350000       0.09310000       0.06440000
O        0.45410000      -0.60820000       1.21760000
C        1.62320000      -1.37130000       1.01790000
C        1.97370000      -2.07920000       2.32470000
C        2.28910000      -1.09940000       3.44100000
C        1.03950000      -3.26470000       2.67490000
C        2.25380000      -4.14580000       2.32720000
O        3.08260000      -2.99040000       2.07610000
H       -1.04990000       1.57200000       1.20880000
H       -1.58580000       1.41540000      -0.47700000
H       -2.02500000       0.17610000       0.71680000
H       -0.14790000      -0.61360000      -0.76310000
H        0.82760000       0.78140000      -0.27090000
H        1.47210000      -2.12180000       0.22470000
H        2.46840000      -0.73290000       0.70910000
H        1.43730000      -0.43420000       3.60730000
H        2.51830000      -1.62990000       4.36930000
H        3.15790000      -0.48890000       3.17220000
H        0.72620000      -3.30050000       3.71950000
H        0.16330000      -3.36880000       2.03390000
H        2.65260000      -4.76340000       3.14060000
H        2.14460000      -4.77260000       1.43320000
