25
Properties=species:S:1:pos:R:3 gdb_104977=T pbc="F F F"
C        0.07160000       1.52860000       0.17450000
C        0.00660000      -0.00040000      -0.01200000
C        0.67630000      -0.65830000       1.21450000
C       -1.48660000      -0.39460000      -0.04800000
C        0.72480000      -0.46820000      -1.30550000
C        0.42360000      -1.91180000      -1.70220000
O        1.25700000      -2.29610000      -2.78900000
C        0.96790000       0.47980000      -2.45780000
C        2.12280000       0.02260000      -1.59780000
H        1.09550000       1.91230000       0.14930000
H       -0.51010000       2.05650000      -0.58660000
H       -0.35020000       1.79440000       1.14950000
H        0.16810000      -0.35730000       2.13720000
H        0.64440000      -1.75080000       1.16610000
H        1.72590000      -0.35890000       1.29500000
H       -1.97440000      -0.01370000      -0.95180000
H       -1.63180000      -1.47850000      -0.01530000
H       -2.01000000       0.02720000       0.81680000
H        0.58710000      -2.58070000      -0.84290000
H       -0.63450000      -1.99950000      -1.98930000
H        0.97900000      -3.16850000      -3.07960000
H        0.90570000       0.06370000      -3.45640000
H        0.64270000       1.50900000      -2.37390000
H        2.56890000       0.73980000      -0.91810000
H        2.81970000      -0.68320000      -2.03140000
