18
Properties=species:S:1:pos:R:3 gdb_80340=T pbc="F F F"
C       -0.06190000       1.55170000      -0.09360000
C        0.04910000       0.04880000       0.04300000
C        1.30750000      -0.72790000      -0.18250000
O        2.45560000       0.01280000       0.27250000
C        1.98270000      -0.07850000       1.63500000
C        1.95860000       1.19400000       2.36340000
N        1.93550000       2.17370000       2.97600000
C        0.66620000      -0.73640000       1.19570000
C       -0.04520000      -1.78740000       1.99490000
H        0.89600000       2.04220000       0.08680000
H       -0.38160000       1.80990000      -1.10850000
H       -0.79470000       1.96400000       0.60640000
H       -0.81810000      -0.49830000      -0.32650000
H        1.48300000      -1.50080000      -0.92180000
H        2.60890000      -0.78290000       2.19820000
H       -0.59600000      -1.34350000       2.83210000
H       -0.76860000      -2.32410000       1.37400000
H        0.65500000      -2.52360000       2.40560000
