20
Properties=species:S:1:pos:R:3 gdb_76993=T pbc="F F F"
C       -0.18610000       1.50460000       0.33990000
N        0.10450000       0.09400000       0.14690000
C        0.91160000      -0.40160000      -1.00670000
C        1.61260000       0.58510000      -1.91360000
O        1.59510000       0.50670000      -3.11710000
C        1.81750000      -1.15450000      -0.01670000
C        2.39010000      -0.20520000       1.01710000
C        0.94680000      -0.62030000       1.11350000
C        0.32520000      -1.28410000       2.30570000
H        0.69330000       2.14040000       0.53630000
H       -0.69860000       1.89440000      -0.54570000
H       -0.86870000       1.61240000       1.18960000
H        0.32030000      -1.06760000      -1.64430000
H        2.18400000       1.39240000      -1.40610000
H        2.20440000      -2.15210000      -0.17610000
H        3.05770000      -0.68070000       1.72940000
H        2.67510000       0.81200000       0.76680000
H       -0.00770000      -0.54210000       3.04140000
H       -0.54410000      -1.87900000       2.00920000
H        1.04530000      -1.93920000       2.80520000
