13
Properties=species:S:1:pos:R:3 gdb_129287=T pbc="F F F"
N        0.05380000       0.99590000      -1.03470000
C        0.02030000       0.14790000      -0.09100000
O        1.24330000      -0.16270000       0.50790000
N        1.57020000      -1.02000000       1.53470000
C        0.74010000      -1.74610000       2.17880000
C       -0.73320000      -1.99200000       2.15370000
O       -1.17590000      -2.79100000       2.95890000
C       -1.62090000      -1.30970000       1.20730000
C       -1.27830000      -0.41560000       0.27480000
H        1.01130000       1.31550000      -1.19680000
H        1.23210000      -2.34150000       2.94620000
H       -2.66270000      -1.59470000       1.31370000
H       -2.05370000       0.00540000      -0.35600000
