21
Properties=species:S:1:pos:R:3 gdb_40942=T pbc="F F F"
C        0.07530000       1.55140000      -0.06620000
O        1.39680000       1.56270000       0.50830000
C        1.46890000       0.12390000       0.48840000
C        0.02270000      -0.00070000      -0.04570000
C       -0.98960000      -0.58040000       0.94570000
C       -2.43290000      -0.36380000       0.46360000
C       -2.59080000      -0.66930000      -1.00270000
C       -1.56080000      -0.82250000      -1.83430000
C       -0.12170000      -0.68390000      -1.40770000
H       -0.65260000       2.06690000       0.57400000
H        0.05530000       2.00950000      -1.06390000
H        2.24980000      -0.23840000      -0.19480000
H        1.64960000      -0.29490000       1.48720000
H       -0.80060000      -1.65650000       1.05380000
H       -0.84780000      -0.13250000       1.93580000
H       -3.11980000      -0.98590000       1.05090000
H       -2.74750000       0.67260000       0.65770000
H       -3.60630000      -0.76420000      -1.37990000
H       -1.74090000      -1.05840000      -2.88040000
H        0.44280000      -0.12650000      -2.16680000
H        0.35010000      -1.67840000      -1.36900000
