23
Properties=species:S:1:pos:R:3 gdb_68877=T pbc="F F F"
C        0.05510000       1.55960000       0.00040000
C       -0.02570000       0.06020000       0.06970000
C        1.12330000      -0.83240000      -0.32630000
C        0.58650000      -0.93940000       1.07870000
C        1.44470000      -0.70980000       2.29120000
C       -0.67950000      -1.79210000       1.03260000
C       -1.77220000      -1.39790000       2.06230000
C       -2.38780000      -0.39260000       1.04790000
C       -1.30750000      -0.76660000      -0.00220000
H        1.04790000       1.91750000       0.29320000
H       -0.13410000       1.92000000      -1.01850000
H       -0.67630000       2.03960000       0.66010000
H        0.97920000      -1.64170000      -1.04060000
H        2.08450000      -0.33400000      -0.41550000
H        2.15820000       0.10410000       2.12400000
H        0.84730000      -0.44900000       3.17190000
H        2.02550000      -1.60650000       2.54120000
H       -0.55520000      -2.85990000       0.83080000
H       -2.44400000      -2.22350000       2.30960000
H       -1.40550000      -0.97550000       3.00200000
H       -3.39930000      -0.66350000       0.73560000
H       -2.40490000       0.65690000       1.35490000
H       -1.66440000      -1.04870000      -0.99690000
