18
Properties=species:S:1:pos:R:3 gdb_89599=T pbc="F F F"
C       -0.43440000       1.33190000       0.56720000
C        0.07260000      -0.09170000       0.49000000
O        0.49000000      -0.49240000      -0.85900000
C        1.73050000      -0.97780000      -0.34190000
C        2.20710000      -2.28210000      -0.93040000
C        3.40440000      -2.79310000      -0.26930000
N        4.34860000      -3.18280000       0.27020000
C        2.54780000       0.14180000       0.21300000
C        1.44190000      -0.48100000       1.05260000
H        0.33660000       2.05080000       0.27910000
H       -1.29330000       1.46330000      -0.09840000
H       -0.75800000       1.55800000       1.58880000
H       -0.69950000      -0.79210000       0.83280000
H        1.40990000      -3.03110000      -0.86150000
H        2.42090000      -2.14320000      -1.99800000
H        3.54660000      -0.12310000       0.54520000
H        2.44860000       1.13700000      -0.20980000
H        1.62760000      -0.93570000       2.01610000
