21
Properties=species:S:1:pos:R:3 gdb_53116=T pbc="F F F"
C       -0.19380000       1.49380000      -0.08160000
C       -0.10000000       0.04010000      -0.04810000
C        0.02020000      -1.16090000      -0.02500000
C        0.08510000      -2.61060000      -0.01190000
C        0.24300000      -3.26160000       1.41440000
C        0.98660000      -2.51520000       2.50830000
C       -1.30210000      -3.38700000       1.49230000
C       -1.35500000      -3.25470000      -0.05130000
O       -2.39520000      -2.55900000      -0.66760000
H        0.78260000       1.95620000       0.10020000
H       -0.55130000       1.84780000      -1.05480000
H       -0.88420000       1.86900000       0.68190000
H        0.78430000      -2.96480000      -0.77540000
H        0.68480000      -4.25400000       1.27440000
H        0.59230000      -1.50180000       2.62880000
H        0.88680000      -3.03620000       3.46680000
H        2.05540000      -2.43340000       2.28210000
H       -1.73040000      -4.28310000       1.94720000
H       -1.74310000      -2.50250000       1.96450000
H       -1.30510000      -4.23640000      -0.53120000
H       -2.26790000      -1.62260000      -0.46400000
