18
Properties=species:S:1:pos:R:3 gdb_62428=T pbc="F F F"
C       -0.15210000       1.56790000       0.02840000
C       -0.02030000       0.05740000      -0.04510000
C       -1.07040000      -0.63990000       0.66210000
C       -1.97350000      -1.19630000       1.22860000
C        0.58620000      -0.66290000      -1.23570000
C        1.39290000       0.12560000      -2.20290000
C        2.46820000       0.63020000      -1.59560000
C        2.49160000       0.21870000      -0.14070000
N        1.29500000      -0.63400000       0.06070000
H        0.52850000       2.07800000      -0.65410000
H       -1.17570000       1.85710000      -0.22430000
H        0.04610000       1.91270000       1.04900000
H       -2.76010000      -1.69630000       1.73710000
H        0.13940000      -1.60530000      -1.54250000
H        1.12240000       0.24700000      -3.24410000
H        3.22140000       1.26560000      -2.04710000
H        3.38500000      -0.36810000       0.10990000
H        2.48080000       1.07720000       0.54390000
