15
Properties=species:S:1:pos:R:3 gdb_73880=T pbc="F F F"
N        0.03400000       1.29360000      -0.04430000
C       -0.03570000      -0.05240000      -0.01410000
C       -1.12210000      -0.88340000      -0.00090000
C       -2.51150000      -0.45820000       0.00750000
O       -3.48940000      -1.16990000       0.02460000
C       -0.63620000      -2.29390000      -0.00100000
O       -1.25680000      -3.32660000      -0.07290000
N        0.75490000      -2.21070000       0.10500000
C        1.24430000      -0.86220000      -0.01840000
H        0.91640000       1.76090000       0.07170000
H       -0.79440000       1.85660000       0.04360000
H       -2.63980000       0.65580000      -0.00190000
H        1.31270000      -3.01150000      -0.14150000
H        1.80150000      -0.68330000      -0.95060000
H        1.89570000      -0.56590000       0.81710000
