20
Properties=species:S:1:pos:R:3 gdb_56674=T pbc="F F F"
C        0.11330000       1.43280000      -0.21550000
C       -0.08610000      -0.08460000      -0.03610000
C        0.73610000      -0.57610000       1.07550000
N        1.39440000      -0.96180000       1.94360000
C       -1.57440000      -0.47940000       0.17240000
O       -2.12080000       0.16110000       1.30130000
C       -2.39750000      -0.42000000      -1.15470000
C       -2.23840000      -1.95940000      -1.28340000
C       -1.80370000      -2.01050000       0.20630000
H        1.15820000       1.66320000      -0.43480000
H       -0.49900000       1.80210000      -1.04320000
H       -0.15700000       1.97260000       0.69630000
H        0.26620000      -0.59340000      -0.94230000
H       -2.16630000       1.10850000       1.13340000
H       -3.42790000      -0.13060000      -0.93440000
H       -2.01930000       0.20280000      -1.96970000
H       -3.13090000      -2.52400000      -1.55690000
H       -1.43320000      -2.24110000      -1.96700000
H       -0.95150000      -2.63690000       0.47760000
H       -2.63720000      -2.23630000       0.87430000
