19
Properties=species:S:1:pos:R:3 gdb_47482=T pbc="F F F"
N       -0.12530000       1.30750000       0.18030000
C       -0.03010000       0.06620000      -0.04740000
C       -1.25410000      -0.82740000      -0.01620000
C       -1.16820000      -1.97030000      -1.00840000
C       -2.39940000      -2.64070000      -1.47870000
N       -1.63160000      -1.76820000      -2.39350000
C        0.15560000      -2.69560000      -0.88760000
C        1.27380000      -1.68130000      -1.09790000
O        1.17950000      -0.54640000      -0.21640000
H        0.80360000       1.73490000       0.15600000
H       -1.32340000      -1.24370000       0.99870000
H       -2.13820000      -0.20520000      -0.17010000
H       -2.38180000      -3.69710000      -1.73390000
H       -3.35390000      -2.28420000      -1.09870000
H       -2.09780000      -0.86790000      -2.48070000
H        0.24430000      -3.15920000       0.10250000
H        0.23580000      -3.48120000      -1.64420000
H        2.25850000      -2.11070000      -0.90160000
H        1.24990000      -1.32180000      -2.13460000
