17
Properties=species:S:1:pos:R:3 gdb_76104=T pbc="F F F"
O       -0.00490000       1.41700000      -0.01080000
C       -0.01380000       0.03150000       0.00910000
C       -0.51820000      -0.69260000       1.26180000
C       -0.86210000       0.09890000       2.40540000
N       -1.10120000       0.74730000       3.33370000
C       -1.35780000      -0.62520000      -0.02620000
C       -2.61410000       0.17930000      -0.09230000
C       -3.52870000      -0.00480000      -1.24790000
N       -3.91790000      -0.48150000       0.08960000
H        0.63830000       1.73820000       0.63150000
H        0.80800000      -0.45280000      -0.51770000
H       -0.06140000      -1.64710000       1.50100000
H       -1.40330000      -1.57210000      -0.55870000
H       -2.55360000       1.15930000       0.36800000
H       -4.10410000       0.83680000      -1.62220000
H       -3.25150000      -0.73400000      -2.00580000
H       -3.79480000      -1.49000000       0.14910000
