20
Properties=species:S:1:pos:R:3 gdb_114643=T pbc="F F F"
C        0.01470000       1.54750000       0.00600000
C        0.00400000       0.01640000       0.06220000
C       -1.40210000      -0.58530000      -0.01580000
C       -2.11940000      -0.45240000      -1.41390000
C       -2.39810000      -1.95120000      -1.69300000
N       -2.82970000      -2.51540000      -0.36800000
C       -1.46040000      -2.13490000       0.11780000
C       -1.03050000      -2.55710000      -1.30440000
O       -0.12580000      -3.12160000      -1.83240000
H        1.03480000       1.93720000       0.07340000
H       -0.42110000       1.91850000      -0.92760000
H       -0.56160000       1.97660000       0.83340000
H        0.61950000      -0.38960000      -0.75080000
H        0.47900000      -0.31410000       0.99510000
H       -2.02080000      -0.14290000       0.77460000
H       -3.04650000       0.12550000      -1.36680000
H       -1.47720000       0.00390000      -2.17410000
H       -2.95430000      -2.23650000      -2.58420000
H       -3.55870000      -1.94920000       0.06840000
H       -1.08570000      -2.59870000       1.02910000
