19
Properties=species:S:1:pos:R:3 gdb_5877=T pbc="F F F"
C       -0.06590000       1.52250000       0.07030000
C        0.02000000      -0.00260000      -0.02930000
C        0.94040000      -0.57600000       1.04830000
O       -1.27070000      -0.59070000       0.21790000
C        0.47820000      -0.41210000      -1.44540000
N        0.38250000      -1.84560000      -1.63050000
C        1.35780000      -2.59620000      -2.20280000
O        2.39330000      -2.16660000      -2.66790000
H        0.91290000       1.98510000      -0.08990000
H       -0.75040000       1.92800000      -0.68490000
H       -0.43070000       1.81690000       1.05810000
H        0.56020000      -0.31760000       2.03990000
H        0.99130000      -1.66450000       0.97250000
H        1.95280000      -0.17630000       0.94300000
H       -1.92150000      -0.10390000      -0.30020000
H       -0.14690000       0.11150000      -2.18460000
H        1.51510000      -0.12410000      -1.63310000
H       -0.42810000      -2.29490000      -1.23200000
H        1.09730000      -3.67360000      -2.20220000
