16
Properties=species:S:1:pos:R:3 gdb_8639=T pbc="F F F"
C       -0.04840000       1.47630000       0.12250000
N       -0.03690000       0.02690000      -0.05130000
C        0.70610000      -0.49000000      -1.21160000
C        2.18790000      -0.02680000      -1.31600000
C        0.66770000      -1.95890000      -1.15420000
C        0.68290000      -3.15610000      -1.07360000
C       -0.00280000      -0.04280000      -2.43950000
N       -0.52230000       0.33640000      -3.39860000
H        0.93630000       1.93570000       0.30060000
H       -0.48800000       1.94360000      -0.76400000
H       -0.69190000       1.71240000       0.97400000
H        0.30790000      -0.44280000       0.77810000
H        2.72300000      -0.34540000      -0.41760000
H        2.66730000      -0.47510000      -2.18890000
H        2.24550000       1.05970000      -1.40620000
H        0.67750000      -4.21690000      -1.01460000
