18
Properties=species:S:1:pos:R:3 gdb_31234=T pbc="F F F"
C       -0.07160000       1.57480000       0.05940000
C        0.07590000       0.04240000       0.05970000
C        0.67250000      -0.46860000      -1.21300000
C        0.05300000      -0.77850000      -2.38480000
C       -1.35410000      -0.72470000      -2.86560000
O       -1.79570000       0.59090000      -3.20200000
O        1.03050000      -1.13870000      -3.28880000
C        2.18310000      -1.02880000      -2.59800000
N        2.04690000      -0.63770000      -1.37350000
H        0.90240000       2.05750000      -0.06510000
H       -0.71780000       1.88960000      -0.76550000
H       -0.50950000       1.92510000       0.99910000
H        0.71200000      -0.27570000       0.89160000
H       -0.90840000      -0.41540000       0.21210000
H       -1.47310000      -1.41610000      -3.71160000
H       -2.02660000      -1.05580000      -2.06900000
H       -1.20300000       0.93210000      -3.88020000
H        3.09130000      -1.28230000      -3.12270000
