20
Properties=species:S:1:pos:R:3 gdb_104233=T pbc="F F F"
C       -0.29030000       1.27530000      -0.12810000
N       -0.27630000      -0.17590000      -0.27060000
C        0.61280000      -0.72300000      -0.96580000
O        1.64770000      -0.19190000      -1.70810000
C        1.98770000      -1.51810000      -2.23130000
C        0.86300000      -2.16000000      -1.37910000
C        1.31520000      -3.10010000      -0.26410000
C       -0.35470000      -2.71000000      -2.14090000
O       -1.47360000      -2.81240000      -1.28860000
H        0.48760000       1.78430000      -0.70810000
H       -1.26860000       1.65630000      -0.43960000
H       -0.16680000       1.53430000       0.92900000
H        1.85560000      -1.54790000      -3.31630000
H        3.01010000      -1.79300000      -1.96190000
H        2.10000000      -2.64940000       0.35030000
H        0.46620000      -3.34510000       0.37740000
H        1.70320000      -4.03280000      -0.68850000
H       -0.56270000      -2.06490000      -3.01100000
H       -0.14610000      -3.71790000      -2.51880000
H       -1.56880000      -1.95310000      -0.84870000
