15
Properties=species:S:1:pos:R:3 gdb_29724=T pbc="F F F"
C       -0.07000000       1.47110000       0.00840000
N        0.04040000       0.02790000       0.02260000
C        0.14500000      -0.80680000      -1.03160000
O        0.17650000      -0.30330000      -2.28050000
N        0.19970000      -2.07450000      -0.70120000
C        0.10920000      -2.07700000       0.67390000
O        0.14500000      -3.22940000       1.38740000
C        0.01440000      -0.80860000       1.16090000
O       -0.14410000      -0.27710000       2.40390000
H        0.81920000       1.92890000      -0.43540000
H       -0.94870000       1.79150000      -0.55890000
H       -0.17090000       1.80560000       1.04140000
H        0.23550000      -1.06080000      -2.87570000
H        0.20870000      -3.94200000       0.74140000
H        0.67670000      -0.37430000       2.90060000
