21
Properties=species:S:1:pos:R:3 gdb_95382=T pbc="F F F"
O       -0.35910000       1.49960000       0.82260000
C       -0.05510000       0.24780000       0.20880000
C        0.75290000      -0.64910000       1.15900000
C       -0.28600000      -1.09960000       2.20780000
C       -1.60880000      -1.23020000       1.41580000
C       -2.82940000      -0.46280000       1.95140000
O       -3.58840000      -0.12070000       0.80420000
C       -2.66420000       0.27140000      -0.21130000
C       -1.37090000      -0.53700000       0.03630000
H        0.47240000       1.93040000       1.04350000
H        0.45690000       0.41170000      -0.75040000
H        1.13560000      -1.51240000       0.60050000
H        1.61950000      -0.13320000       1.58890000
H        0.00360000      -2.02850000       2.70540000
H       -0.38500000      -0.33350000       2.98340000
H       -1.88120000      -2.27870000       1.26930000
H       -3.47380000      -1.04990000       2.61210000
H       -2.49970000       0.44000000       2.49110000
H       -3.13010000       0.05030000      -1.17560000
H       -2.46180000       1.34730000      -0.15370000
H       -1.21750000      -1.28120000      -0.74960000
