18
Properties=species:S:1:pos:R:3 gdb_16896=T pbc="F F F"
C        0.15540000       1.58140000       0.00150000
C       -0.02420000       0.05710000       0.01620000
C        0.52340000      -0.57480000      -1.28270000
C        0.70620000      -2.08510000      -1.20040000
O        2.03170000      -2.54270000      -0.90310000
C        1.00750000      -2.69400000       0.10180000
C        1.07480000      -1.80730000       1.29130000
C        0.59780000      -0.56300000       1.24910000
H        1.21770000       1.84890000      -0.01930000
H       -0.31950000       2.02290000      -0.88060000
H       -0.29010000       2.04240000       0.88920000
H       -1.10640000      -0.14370000       0.06460000
H       -0.13660000      -0.32010000      -2.11890000
H        1.50420000      -0.13880000      -1.50450000
H        0.19500000      -2.68550000      -1.95230000
H        0.72980000      -3.73220000       0.28390000
H        1.50610000      -2.21000000       2.20330000
H        0.63160000       0.05850000       2.14190000
