22
Properties=species:S:1:pos:R:3 gdb_120755=T pbc="F F F"
C        0.11440000       1.53130000       0.22490000
C        0.03790000       0.02180000      -0.01530000
C        0.99120000      -0.46120000      -1.11640000
C        0.90010000      -1.95510000      -1.33650000
N       -0.20200000      -2.44570000      -2.17830000
C        1.18730000      -2.64460000      -2.62710000
C        1.59960000      -1.94050000      -3.87710000
C        2.94890000      -2.10100000      -4.43430000
O        1.83540000      -2.77740000      -5.01670000
H        1.12400000       1.83570000       0.52320000
H       -0.14370000       2.08970000      -0.68180000
H       -0.57470000       1.84500000       1.01520000
H        0.26430000      -0.51070000       0.91860000
H       -0.98510000      -0.26140000      -0.29050000
H        0.75990000       0.06300000      -2.04990000
H        2.02520000      -0.19910000      -0.85340000
H        1.13270000      -2.54280000      -0.44690000
H       -0.58920000      -3.31200000      -1.81570000
H        1.60480000      -3.64830000      -2.55790000
H        1.04840000      -1.02950000      -4.10320000
H        3.38530000      -1.30430000      -5.03540000
H        3.66860000      -2.74000000      -3.92280000
