18
Properties=species:S:1:pos:R:3 gdb_45579=T pbc="F F F"
N       -0.08170000       1.25410000      -0.44230000
C       -0.01750000       0.05610000      -0.08150000
O        1.04790000      -0.70370000       0.35170000
C        0.17530000      -1.85570000       0.63570000
C        0.12650000      -2.16170000       2.13880000
C       -1.29710000      -2.06080000       2.69870000
O       -1.91610000      -0.84890000       2.30900000
C       -2.24930000      -0.85900000       0.93520000
C       -1.02730000      -1.06550000       0.04140000
H        0.82940000       1.71250000      -0.39080000
H        0.50300000      -2.71150000       0.04220000
H        0.54270000      -3.15170000       2.35190000
H        0.75780000      -1.42480000       2.64340000
H       -1.90730000      -2.91850000       2.36770000
H       -1.27890000      -2.06810000       3.79190000
H       -2.98840000      -1.65320000       0.73760000
H       -2.71340000       0.10520000       0.71120000
H       -1.33600000      -1.43010000      -0.94200000
