18
Properties=species:S:1:pos:R:3 gdb_63107=T pbc="F F F"
C        0.00390000       1.53820000      -0.01700000
C        0.01200000       0.02380000      -0.05340000
C       -1.22570000      -0.63710000       0.52830000
C        0.63850000      -0.76340000      -1.19050000
C        1.92590000      -0.11170000      -1.67830000
O        2.44190000      -0.00840000      -0.31970000
C        1.31210000      -0.72560000       0.18210000
C        1.52530000      -1.72650000       1.17800000
N        1.67630000      -2.53190000       1.99540000
H        0.97960000       1.95510000      -0.27100000
H       -0.74250000       1.93640000      -0.71290000
H       -0.25560000       1.88880000       0.98730000
H       -2.11440000      -0.33670000      -0.03680000
H       -1.16180000      -1.72860000       0.49990000
H       -1.37050000      -0.33830000       1.57120000
H        0.13040000      -1.58980000      -1.66970000
H        2.55610000      -0.78290000      -2.27020000
H        1.85190000       0.86380000      -2.16920000
