21
Properties=species:S:1:pos:R:3 gdb_74901=T pbc="F F F"
C       -0.02450000       1.67450000      -0.27280000
C       -0.01250000       0.19290000       0.01470000
C       -1.08440000      -0.56600000      -0.24030000
C       -1.33540000      -2.01260000      -0.02780000
C       -0.56100000      -3.10890000      -0.75740000
C       -0.43970000      -2.96310000       0.73210000
C        0.87160000      -2.51220000       1.34030000
O        1.60630000      -1.64790000       0.49910000
C        1.29340000      -0.27710000       0.61680000
H        0.72770000       1.94220000      -1.02660000
H       -1.00090000       2.00710000      -0.63310000
H        0.21840000       2.25730000       0.62620000
H       -1.93890000      -0.05080000      -0.67790000
H       -2.39590000      -2.22720000       0.07450000
H       -1.11510000      -3.94680000      -1.16630000
H        0.28840000      -2.77970000      -1.34400000
H       -0.95430000      -3.70380000       1.34060000
H        0.70020000      -2.03790000       2.32080000
H        1.51020000      -3.38870000       1.50750000
H        2.11710000       0.25130000       0.11970000
H        1.33110000       0.02700000       1.68000000
