21
Properties=species:S:1:pos:R:3 gdb_108233=T pbc="F F F"
C       -0.05460000       1.52200000       0.01170000
C        0.11030000      -0.00260000       0.09770000
C        0.67540000      -0.57900000      -1.16220000
O        2.01240000      -0.17560000      -1.52400000
C        2.32850000      -1.51960000      -1.97820000
C        0.89010000      -1.95860000      -1.73740000
O        0.50900000      -3.19040000      -1.23990000
C       -0.06050000      -0.98320000      -2.42480000
C       -1.54010000      -1.29970000      -2.35460000
H        0.90290000       1.99950000      -0.21440000
H       -0.76200000       1.79890000      -0.77660000
H       -0.42420000       1.92810000       0.95790000
H        0.77710000      -0.25640000       0.93040000
H       -0.85330000      -0.47800000       0.30880000
H        2.71520000      -1.53420000      -3.00480000
H        3.04110000      -2.00500000      -1.30040000
H        0.23450000      -3.74750000      -1.97700000
H        0.27220000      -0.51350000      -3.35030000
H       -1.79640000      -1.82730000      -1.43230000
H       -2.14310000      -0.38730000      -2.40570000
H       -1.84230000      -1.94020000      -3.19130000
