25
Properties=species:S:1:pos:R:3 gdb_100298=T pbc="F F F"
C        0.02650000       1.62880000       0.08030000
C        0.03700000       0.09810000       0.00320000
C        0.70930000      -0.49700000      -1.25020000
O        2.07620000      -0.06570000      -1.19480000
C        0.62850000      -2.03860000      -1.24520000
C        1.18980000      -2.71970000       0.00780000
C        0.06970000       0.08950000      -2.53940000
C        0.69130000      -0.39490000      -3.85190000
O       -1.32240000      -0.22180000      -2.48650000
H        1.02850000       2.03600000      -0.07990000
H       -0.64960000       2.07050000      -0.65770000
H       -0.31600000       1.95350000       1.06780000
H        0.57750000      -0.29020000       0.87130000
H       -0.98660000      -0.28350000       0.05740000
H        2.57670000      -0.57650000      -1.83870000
H       -0.41460000      -2.32830000      -1.40710000
H        1.18320000      -2.41020000      -2.11750000
H        2.19210000      -2.34620000       0.23910000
H        0.55880000      -2.55190000       0.88480000
H        1.25730000      -3.80140000      -0.14380000
H        0.21760000       1.17700000      -2.48510000
H        0.53130000      -1.46500000      -4.00770000
H        0.23810000       0.13740000      -4.69650000
H        1.76480000      -0.18320000      -3.88690000
H       -1.73960000       0.13810000      -3.27510000
