17
Properties=species:S:1:pos:R:3 gdb_15254=T pbc="F F F"
C       -1.89380000       0.57840000      -0.86920000
N       -0.82050000      -0.38640000      -0.63850000
C        0.43470000      -0.31080000      -1.34690000
C        0.76810000       0.73810000      -2.38970000
O        0.27900000       0.35250000      -3.66850000
C        0.37260000      -0.01590000       0.14350000
C        0.62150000       1.35190000       0.67280000
O        0.26570000       2.39810000       0.17620000
H       -1.57390000       1.61640000      -0.99940000
H       -2.45280000       0.24900000      -1.75190000
H       -2.57600000       0.53900000      -0.01490000
H        0.83760000      -1.29150000      -1.60110000
H        0.41630000       1.72960000      -2.09110000
H        1.85700000       0.79360000      -2.49350000
H       -0.68000000       0.43020000      -3.65330000
H        0.70740000      -0.79790000       0.82290000
H        1.18580000       1.34920000       1.63190000
