20
Properties=species:S:1:pos:R:3 gdb_71943=T pbc="F F F"
C        0.00490000       1.56440000      -0.03670000
C        0.02600000       0.04710000       0.04610000
C        0.32170000      -0.71760000      -1.28280000
N       -0.99840000      -1.43740000      -1.24970000
C       -0.90560000      -2.73300000      -0.49790000
C       -0.98790000      -2.00880000       0.86890000
O        0.28390000      -1.83140000       1.48550000
C        0.76340000      -0.50600000       1.26690000
C       -1.31200000      -0.73160000       0.06060000
H        1.01830000       1.96540000      -0.15620000
H       -0.58690000       1.90510000      -0.89180000
H       -0.42320000       2.00780000       0.86920000
H        0.38780000      -0.06410000      -2.15830000
H        1.19600000      -1.37800000      -1.27140000
H       -1.78530000      -3.34780000      -0.71330000
H        0.00170000      -3.31840000      -0.67340000
H       -1.70580000      -2.38570000       1.60360000
H        1.84900000      -0.55590000       1.12280000
H        0.56550000       0.12210000       2.15040000
H       -2.26980000      -0.22090000       0.17380000
