13
Properties=species:S:1:pos:R:3 gdb_128759=T pbc="F F F"
C        0.00870000       1.37850000      -0.07050000
O       -0.12280000      -0.04170000       0.05610000
C        0.58770000      -0.61860000       1.01300000
N        0.60000000      -1.88740000       1.11120000
C        1.25110000      -2.43830000       2.18280000
N        1.35160000      -1.94750000       3.39490000
O        2.04560000      -2.88370000       4.08440000
N        2.34170000      -3.94730000       3.22690000
N        1.86200000      -3.68410000       2.09990000
H        0.97850000       1.63830000      -0.50650000
H       -0.78930000       1.69700000      -0.74030000
H       -0.10860000       1.87290000       0.89930000
H        1.13590000       0.05750000       1.68130000
