13
Properties=species:S:1:pos:R:3 gdb_133326=T pbc="F F F"
N        0.01370000       1.44280000      -0.13740000
C        0.03380000       0.07200000      -0.06460000
C       -1.14480000      -0.70690000      -0.08230000
O       -2.31740000      -0.03270000      -0.11260000
N       -1.18320000      -2.02250000      -0.06380000
N       -0.05240000      -2.73430000      -0.02560000
C        1.10250000      -2.08130000      -0.00010000
C        1.18420000      -0.69180000      -0.01540000
F        2.36960000      -0.07180000       0.02390000
H        0.84650000       1.91690000       0.17530000
H       -0.85390000       1.88060000       0.13020000
H       -3.01250000      -0.70680000      -0.10820000
H        2.00700000      -2.67940000       0.03570000
