19
Properties=species:S:1:pos:R:3 gdb_34424=T pbc="F F F"
C       -0.01160000      -1.18300000       0.03810000
C        0.00230000       0.02030000       0.02700000
C       -0.00430000       1.46230000       0.03950000
C       -0.91400000       2.15930000       1.06630000
C       -0.61590000       3.64550000       0.73590000
C        0.39010000       3.46300000      -0.39750000
C        1.34630000       2.27350000      -0.06340000
C        1.42650000       1.93520000      -1.56980000
C       -0.05880000       2.27800000      -1.31120000
H       -0.02070000      -2.24470000       0.04430000
H       -1.96330000       1.88780000       0.91840000
H       -0.64430000       1.88360000       2.08990000
H       -1.50720000       4.19220000       0.41240000
H       -0.18740000       4.18800000       1.58450000
H        0.81560000       4.34800000      -0.87350000
H        2.14890000       2.26030000       0.67690000
H        1.98430000       2.63710000      -2.19540000
H        1.65480000       0.89980000      -1.83070000
H       -0.88870000       2.26990000      -2.02080000
