19
Properties=species:S:1:pos:R:3 gdb_69657=T pbc="F F F"
C        0.18990000       1.55830000      -0.03290000
C       -0.05580000       0.09430000       0.12580000
C       -1.38430000      -0.67970000       0.00850000
C       -0.79900000      -1.75070000       0.98360000
C       -1.52300000      -2.15510000       2.28190000
O       -1.30660000      -3.55370000       2.01580000
C       -0.74720000      -3.26340000       0.71450000
C        0.48650000      -0.92100000       1.04730000
O        0.96940000      -0.81980000      -0.30150000
H        1.21130000       1.80820000       0.26560000
H        0.05580000       1.86290000      -1.07710000
H       -0.50890000       2.13870000       0.57810000
H       -2.23620000      -0.15020000       0.44580000
H       -1.64030000      -1.01620000      -0.99980000
H       -1.05710000      -1.83410000       3.22300000
H       -2.59170000      -1.89980000       2.31020000
H       -1.40040000      -3.61070000      -0.09710000
H        0.25080000      -3.69690000       0.58190000
H        1.21830000      -0.85540000       1.84650000
