20
Properties=species:S:1:pos:R:3 gdb_112087=T pbc="F F F"
C        0.06000000       1.76620000      -0.72530000
O       -0.32850000       0.44390000      -0.43310000
C        0.58390000      -0.55120000      -0.89790000
C        1.73360000      -0.74910000       0.05320000
C        2.24520000      -1.94750000       0.32340000
C        1.70480000      -3.21440000      -0.28240000
N        0.34200000      -3.14270000      -0.81670000
C       -0.69340000      -2.59720000       0.05790000
C       -0.21890000      -1.82150000      -1.11890000
H        0.99960000       2.05450000      -0.23000000
H        0.18400000       1.92370000      -1.80860000
H       -0.73500000       2.42240000      -0.36240000
H        0.98190000      -0.22300000      -1.87490000
H        2.14540000       0.14600000       0.51070000
H        3.08870000      -2.04550000       1.00310000
H        2.36220000      -3.54210000      -1.10090000
H        1.72640000      -4.02390000       0.45830000
H       -1.64940000      -3.11210000       0.02230000
H       -0.40430000      -2.22700000       1.03850000
H       -0.84160000      -1.79810000      -2.01030000
