18
Properties=species:S:1:pos:R:3 gdb_8384=T pbc="F F F"
C       -0.67600000       1.34940000       0.18980000
C        0.04440000       0.02720000       0.02770000
C        0.86340000      -0.20130000      -1.26740000
C        2.04780000      -0.27300000      -0.31840000
C        3.23260000      -1.19390000      -0.33120000
C        3.40320000       0.31280000      -0.49620000
O        3.68290000       0.85370000      -1.75420000
O        1.25330000      -0.04490000       0.84070000
H       -0.01950000       2.18350000      -0.07620000
H       -1.56190000       1.38240000      -0.45430000
H       -1.00150000       1.48360000       1.22620000
H       -0.62160000      -0.80780000       0.27950000
H        0.63560000      -1.11710000      -1.81540000
H        0.88600000       0.64350000      -1.95860000
H        3.54910000      -1.63110000       0.61020000
H        3.36890000      -1.81920000      -1.20860000
H        3.81890000       0.85060000       0.35660000
H        4.59370000       0.63450000      -1.97790000
