19
Properties=species:S:1:pos:R:3 gdb_37846=T pbc="F F F"
C       -0.02220000       1.49670000       0.03350000
C        1.51520000       1.41060000       0.01490000
C        1.26920000       0.08560000       0.79180000
C        2.21890000      -0.96110000       0.27530000
C        1.96490000      -0.62010000      -1.16810000
C        0.43230000      -0.46200000      -1.38200000
C        0.85920000       0.73210000      -2.25570000
N        2.03780000       0.90920000      -1.32950000
N       -0.04560000      -0.01210000      -0.00320000
H       -0.39570000       1.83240000       1.00580000
H       -0.58190000       2.01850000      -0.74210000
H        2.14400000       2.21940000       0.39990000
H        1.08430000       0.15570000       1.86400000
H        3.25310000      -0.78860000       0.58730000
H        1.92100000      -1.98230000       0.53030000
H        2.53310000      -1.13210000      -1.94510000
H       -0.20140000      -1.26520000      -1.77070000
H        1.22470000       0.40570000      -3.23430000
H        0.21530000       1.59780000      -2.40700000
