15
Properties=species:S:1:pos:R:3 gdb_14676=T pbc="F F F"
O        0.28870000       0.66580000       0.91250000
C       -0.11130000       0.10130000      -0.33020000
C       -1.47620000      -0.39740000      -0.22570000
C       -2.60420000      -0.81250000      -0.16790000
C       -3.96890000      -1.31430000      -0.05930000
N       -4.03410000      -2.62310000       0.58280000
C       -4.71410000      -3.66460000       0.03410000
O       -5.37210000      -3.60950000      -0.98320000
H        1.18700000       0.99410000       0.80250000
H       -0.06690000       0.84590000      -1.14160000
H        0.55190000      -0.72840000      -0.62450000
H       -4.58700000      -0.58880000       0.48680000
H       -4.42550000      -1.44060000      -1.04640000
H       -3.47350000      -2.78060000       1.40490000
H       -4.60380000      -4.58780000       0.63590000
