13
Properties=species:S:1:pos:R:3 gdb_580=T pbc="F F F"
O        0.32690000      -0.12690000      -0.21110000
C        0.12440000       1.05830000      -0.25560000
C        1.15540000       2.12110000       0.07240000
C        1.30930000       3.12220000      -1.05680000
C        2.62450000       3.75140000      -1.32640000
N        2.06510000       2.76360000      -2.26650000
H       -0.87070000       1.46090000      -0.55700000
H        0.81580000       2.64660000       0.97730000
H        2.10450000       1.62600000       0.30230000
H        0.41240000       3.70070000      -1.27250000
H        2.67720000       4.76760000      -1.70650000
H        3.46210000       3.45960000      -0.69780000
H        2.52210000       1.86350000      -2.13520000
