20
Properties=species:S:1:pos:R:3 gdb_39319=T pbc="F F F"
C       -0.01290000       1.55170000       0.11610000
C        1.52520000       1.57040000      -0.11170000
C        1.43460000       0.09940000      -0.61410000
C        2.42670000      -0.94130000      -0.14370000
N        2.86660000      -0.85830000       1.26520000
C        1.96960000      -1.94590000       0.85450000
C        0.54710000      -1.85420000       1.37410000
O        0.03530000      -0.53800000       1.32730000
C        0.01390000       0.01170000       0.02380000
H       -0.38900000       1.94880000       1.06080000
H       -0.57130000       1.99950000      -0.71050000
H        1.92210000       2.31160000      -0.80890000
H        2.07800000       1.61990000       0.82760000
H        1.35590000       0.05700000      -1.70500000
H        3.16940000      -1.26180000      -0.87090000
H        3.81920000      -1.20250000       1.34840000
H        2.36760000      -2.95730000       0.79320000
H       -0.09000000      -2.54570000       0.79400000
H        0.50290000      -2.15650000       2.42570000
H       -0.76470000      -0.48260000      -0.57760000
