15
Properties=species:S:1:pos:R:3 gdb_16655=T pbc="F F F"
O       -0.17030000       1.47180000      -0.20600000
C       -0.06640000       0.08480000      -0.06170000
C       -1.41100000      -0.66840000       0.04400000
C       -1.17270000      -1.98640000      -0.69630000
N       -1.15900000      -1.78910000      -2.15160000
C        0.13130000      -1.94670000      -1.42120000
C        0.71760000      -0.57900000      -1.19890000
O        1.62810000      -0.04330000      -1.78030000
H        0.57840000       1.73670000      -0.75990000
H        0.52690000      -0.17490000       0.83890000
H       -1.69660000      -0.83310000       1.08500000
H       -2.19840000      -0.09190000      -0.44750000
H       -1.55490000      -2.91820000      -0.29400000
H       -1.35450000      -2.66660000      -2.62910000
H        0.76120000      -2.80560000      -1.62020000
