18
Properties=species:S:1:pos:R:3 gdb_15346=T pbc="F F F"
C       -0.09550000       1.50740000      -0.44570000
C        0.01200000       0.15290000       0.26440000
C       -1.32700000      -0.54700000       0.34540000
N       -1.78320000      -1.27450000      -0.85140000
C       -1.52940000      -2.02120000       0.38460000
C       -0.38660000      -3.02680000       0.35030000
C       -0.83390000      -4.33950000      -0.11710000
N       -1.20680000      -5.37290000      -0.47480000
H        0.87740000       2.00450000      -0.49820000
H       -0.46690000       1.37610000      -1.46660000
H       -0.78470000       2.17750000       0.08020000
H        0.72840000      -0.47890000      -0.26970000
H        0.40310000       0.29230000       1.28060000
H       -2.08310000       0.02470000       0.88530000
H       -2.77930000      -1.15600000      -1.00960000
H       -2.39160000      -2.37230000       0.94850000
H        0.40540000      -2.67220000      -0.31400000
H        0.04700000      -3.14430000       1.35050000
