18
Properties=species:S:1:pos:R:3 gdb_16178=T pbc="F F F"
C       -0.31370000       1.31280000      -0.09160000
O        0.19860000       0.00380000       0.09120000
C        0.79130000      -0.52850000      -1.04370000
C       -0.04550000      -1.07230000      -2.17430000
C        0.75980000      -2.00930000      -1.29370000
C        2.14710000      -2.37030000      -1.78400000
O        2.73340000      -1.13830000      -2.21030000
C        2.20630000      -0.08940000      -1.40770000
H        0.48150000       2.04070000      -0.30590000
H       -1.04730000       1.34700000      -0.90880000
H       -0.80400000       1.59450000       0.84300000
H       -1.11840000      -1.07950000      -2.01750000
H        0.27590000      -0.90700000      -3.19830000
H        0.23850000      -2.66870000      -0.61090000
H        2.73050000      -2.82790000      -0.96890000
H        2.16500000      -3.04720000      -2.64440000
H        2.26950000       0.83000000      -1.99900000
H        2.77860000       0.04930000      -0.47550000
