21
Properties=species:S:1:pos:R:3 gdb_86993=T pbc="F F F"
O       -0.09600000       1.45750000      -0.07680000
C        0.01560000       0.05540000      -0.00600000
C        0.31760000      -0.61470000       1.36330000
C       -0.77170000      -1.67290000       1.02780000
C       -1.68280000      -2.15770000       2.14670000
C       -2.79520000      -3.09960000       1.63900000
C       -3.67490000      -3.57040000       2.70170000
C       -4.38360000      -3.94330000       3.59830000
C       -1.33670000      -0.68200000      -0.03400000
H        0.78960000       1.83400000      -0.05970000
H        0.68950000      -0.32960000      -0.78540000
H        1.33450000      -0.96100000       1.56560000
H       -0.01000000       0.04310000       2.17500000
H       -0.31400000      -2.53480000       0.52710000
H       -1.09330000      -2.68140000       2.90890000
H       -2.14430000      -1.29750000       2.64630000
H       -3.39000000      -2.58170000       0.87540000
H       -2.33950000      -3.96180000       1.13400000
H       -5.01760000      -4.27870000       4.38090000
H       -2.10940000      -0.03870000       0.40000000
H       -1.69080000      -1.07300000      -0.99030000
