14
Properties=species:S:1:pos:R:3 gdb_21269=T pbc="F F F"
C        0.04750000       1.35880000       0.01400000
O        0.01850000      -0.05870000       0.03980000
C       -1.21900000      -0.60270000       0.03820000
C       -2.46940000      -0.07430000       0.01440000
O       -3.38350000      -1.06670000       0.01190000
N       -2.72220000      -2.30050000       0.02660000
C       -1.44040000      -2.01730000       0.05060000
N       -0.45400000      -2.97860000       0.14070000
H        1.09750000       1.65350000       0.01510000
H       -0.44210000       1.74540000      -0.88990000
H       -0.45180000       1.77690000       0.89820000
H       -2.85480000       0.93150000       0.00020000
H       -0.75720000      -3.89930000      -0.14470000
H        0.41960000      -2.70510000      -0.28580000
