20
Properties=species:S:1:pos:R:3 gdb_115771=T pbc="F F F"
C        0.03010000       1.35690000      -0.15000000
C       -0.00100000      -0.17410000      -0.13720000
C       -1.39120000      -0.70580000       0.16760000
O       -2.37340000      -0.33570000      -0.83670000
C       -2.57600000      -1.70660000      -1.23040000
C       -1.66370000      -2.21090000      -0.10380000
O       -0.57370000      -2.98700000      -0.56050000
C       -0.07550000      -3.93110000       0.26600000
N        0.96110000      -4.56980000      -0.05970000
H        1.02670000       1.72690000      -0.40680000
H       -0.68020000       1.74610000      -0.88470000
H       -0.23920000       1.76940000       0.82900000
H        0.33120000      -0.57220000      -1.10120000
H        0.69310000      -0.56600000       0.61750000
H       -1.72160000      -0.36700000       1.15970000
H       -3.62950000      -2.00330000      -1.17930000
H       -2.18150000      -1.92250000      -2.23040000
H       -2.18130000      -2.72630000       0.71160000
H       -0.66640000      -4.06100000       1.18370000
H        1.18710000      -5.25570000       0.65740000
