19
Properties=species:S:1:pos:R:3 gdb_51616=T pbc="F F F"
O       -0.20790000       0.01460000      -0.13230000
C       -0.00050000       1.19750000      -0.04500000
C        1.35310000       1.85310000      -0.20700000
C        1.35960000       2.88360000      -1.33880000
C        0.53160000       4.19970000      -1.16780000
C        1.72840000       4.94770000      -1.75750000
C        1.75260000       5.92550000      -2.84590000
O        2.06140000       6.29280000      -1.49120000
C        2.64680000       3.74600000      -1.52700000
H       -0.83560000       1.90810000       0.15900000
H        1.59840000       2.36040000       0.73770000
H        2.09810000       1.07020000      -0.37930000
H        1.09610000       2.39400000      -2.28140000
H       -0.42790000       4.27590000      -1.68410000
H        0.38980000       4.46050000      -0.11340000
H        2.59420000       5.94860000      -3.53730000
H        0.81830000       6.32840000      -3.23540000
H        3.20570000       3.85120000      -0.59120000
H        3.33780000       3.46390000      -2.32450000
