23
Properties=species:S:1:pos:R:3 gdb_108304=T pbc="F F F"
C        0.14720000       1.64570000      -0.04620000
C        0.05410000       0.12840000       0.01860000
C        0.92170000      -0.73510000      -0.94850000
C        1.29100000      -1.69030000       0.22830000
C        0.81670000      -3.11490000       0.11050000
O        1.57290000      -3.74350000      -0.91860000
C        2.68710000      -1.41820000       0.83760000
C        2.08140000      -0.26360000       1.69120000
C        0.64650000      -0.65410000       1.22290000
H        1.18240000       1.99450000       0.03090000
H       -0.25150000       2.01910000      -0.99630000
H       -0.42450000       2.11630000       0.76200000
H       -0.99700000      -0.16450000      -0.08820000
H        0.38880000      -1.20360000      -1.77930000
H        1.78680000      -0.20520000      -1.35970000
H        0.95130000      -3.63300000       1.07500000
H       -0.26160000      -3.13260000      -0.12300000
H        1.27470000      -4.65430000      -0.99830000
H        3.04090000      -2.25170000       1.45210000
H        3.47990000      -1.15520000       0.13190000
H        2.24280000      -0.36280000       2.76700000
H        2.40040000       0.74090000       1.40160000
H       -0.04490000      -0.94380000       2.01810000
