16
Properties=species:S:1:pos:R:3 gdb_67412=T pbc="F F F"
N       -0.14330000       1.42780000       0.19330000
C       -0.00990000       0.05130000      -0.00770000
C       -1.05370000      -1.03310000      -0.08190000
C       -0.40300000      -1.67220000      -1.30160000
C        0.91180000      -0.97730000      -0.84280000
N        1.29760000      -1.61600000       0.44580000
C        0.07380000      -1.05710000       1.01610000
C       -0.22350000      -1.03060000       2.40840000
N       -0.46660000      -1.01680000       3.54000000
H        0.72150000       1.86820000       0.48700000
H       -0.50460000       1.91160000      -0.62080000
H       -2.09570000      -0.97250000       0.20310000
H       -0.38290000      -2.76480000      -1.38320000
H       -0.79240000      -1.23760000      -2.22610000
H        1.71890000      -0.75240000      -1.53710000
H        1.29810000      -2.63700000       0.39920000
