26
Properties=species:S:1:pos:R:3 gdb_88953=T pbc="F F F"
C       -0.36290000       1.33940000      -0.09360000
N        0.06320000      -0.04810000      -0.00670000
C        1.47360000      -0.32000000      -0.25450000
C        0.89990000      -0.51820000       1.10820000
C        1.35720000       0.33070000       2.28140000
C        0.53360000       0.19650000       3.59090000
C        0.63550000      -1.23490000       4.15170000
C        1.12690000       1.17280000       4.62370000
C       -0.94560000       0.54890000       3.35510000
H        0.38730000       2.07830000       0.23190000
H       -0.60660000       1.55760000      -1.13870000
H       -1.26890000       1.48520000       0.50190000
H        1.70140000      -1.16580000      -0.89900000
H        2.13500000       0.53750000      -0.38600000
H        0.65620000      -1.54470000       1.37740000
H        2.39630000       0.05510000       2.50900000
H        1.38870000       1.38550000       1.98720000
H        1.68010000      -1.52430000       4.31300000
H        0.11770000      -1.30770000       5.11430000
H        0.18170000      -1.97280000       3.48320000
H        1.06610000       2.20890000       4.27190000
H        0.58870000       1.11170000       5.57590000
H        2.18110000       0.94920000       4.82220000
H       -1.40540000      -0.11570000       2.61700000
H       -1.51690000       0.45990000       4.28560000
H       -1.05630000       1.57820000       2.99700000
