15
Properties=species:S:1:pos:R:3 gdb_69014=T pbc="F F F"
C       -0.03660000       1.58480000       0.03930000
C        0.01690000       0.08860000      -0.00600000
C       -0.90020000      -0.84110000       0.78370000
C        0.58190000      -0.96100000       0.95630000
O        1.12610000      -1.73300000      -0.14390000
C        0.70220000      -0.74770000      -1.04630000
N        0.90480000      -0.62760000      -2.27240000
C        1.33440000      -0.83760000       2.15660000
N        1.92920000      -0.71950000       3.14190000
H        0.93510000       2.01940000      -0.20950000
H       -0.76930000       1.95770000      -0.68310000
H       -0.33080000       1.93490000       1.03250000
H       -1.43530000      -0.35320000       1.59250000
H       -1.42140000      -1.66200000       0.30170000
H        1.45690000      -1.40000000      -2.64810000
