18
Properties=species:S:1:pos:R:3 gdb_71260=T pbc="F F F"
O       -0.22580000       1.35100000      -0.12120000
C       -0.04150000      -0.03190000      -0.05170000
C        0.43420000      -0.77520000       1.22410000
C       -0.37190000      -1.92250000       0.61110000
N        0.04450000      -2.14140000      -0.88130000
C       -1.38580000      -1.78830000      -1.26150000
C       -1.37200000      -0.91130000      -0.01680000
O       -2.45510000      -0.32890000       0.61240000
C        0.70710000      -0.81870000      -1.13550000
H        0.42590000       1.78690000       0.43640000
H        1.50860000      -0.87930000       1.40150000
H       -0.07730000      -0.41720000       2.12170000
H       -0.62970000      -2.84740000       1.12090000
H       -1.50600000      -1.35990000      -2.26160000
H       -2.03020000      -2.66450000      -1.14890000
H       -2.33110000       0.62850000       0.54640000
H        0.51500000      -0.47890000      -2.15530000
H        1.78780000      -0.87820000      -0.97630000
