14
Properties=species:S:1:pos:R:3 gdb_132269=T pbc="F F F"
C       -0.01940000       1.53240000       0.02760000
C        0.00100000       0.02990000       0.00060000
C       -0.02290000      -0.66500000      -1.17230000
C       -0.00410000      -2.10130000      -1.22760000
O       -0.02070000      -2.83810000      -2.16840000
O        0.04250000      -2.73390000       0.07560000
C        0.06430000      -2.02490000       1.18060000
F        0.10590000      -2.79380000       2.24490000
C        0.04700000      -0.67780000       1.24470000
H        0.87140000       1.91920000       0.53530000
H       -0.05600000       1.95350000      -0.97870000
H       -0.88800000       1.89440000       0.58900000
H       -0.05780000      -0.16530000      -2.13180000
H        0.06740000      -0.17780000       2.20200000
