16
Properties=species:S:1:pos:R:3 gdb_35210=T pbc="F F F"
C       -0.09740000      -1.21410000       0.09150000
C       -0.07460000      -0.01130000       0.06360000
C       -0.00990000       1.41730000       0.02340000
C        0.54530000       2.21460000       1.21210000
C        1.33900000       2.11310000      -0.03820000
C        2.68460000       1.40760000      -0.22400000
N        3.37370000       2.21000000      -1.25020000
C        2.59660000       3.17340000      -1.51260000
O        1.40090000       3.27280000      -0.87100000
H       -0.13360000      -2.27500000       0.11870000
H       -0.79780000       1.91610000      -0.53330000
H        0.05990000       3.15930000       1.42860000
H        0.88610000       1.65390000       2.07560000
H        3.28190000       1.39010000       0.69460000
H        2.56370000       0.37280000      -0.56010000
H        2.78710000       3.96970000      -2.22270000
