20
Properties=species:S:1:pos:R:3 gdb_22784=T pbc="F F F"
C       -0.24030000       1.46170000       0.06800000
C        0.05680000      -0.04050000       0.02500000
C        0.72320000      -0.48710000      -1.27480000
C        1.00960000      -2.01180000      -1.49490000
C        0.45190000      -1.90880000      -2.94410000
O       -0.46760000      -2.90430000      -3.31230000
C       -0.10690000      -0.55190000      -2.54600000
N       -1.06590000       0.16580000      -2.95670000
O       -1.61580000      -0.39040000      -4.14460000
H        0.67950000       2.04910000      -0.03110000
H       -0.91100000       1.74720000      -0.74690000
H       -0.71270000       1.74050000       1.01500000
H        0.71250000      -0.31760000       0.86060000
H       -0.87290000      -0.60700000       0.15770000
H        1.63180000       0.10500000      -1.44630000
H        2.04100000      -2.34810000      -1.38210000
H        0.34750000      -2.63580000      -0.89000000
H        1.26240000      -1.80430000      -3.68350000
H       -1.08980000      -2.48690000      -3.92100000
H       -2.36610000       0.18800000      -4.31590000
