19
Properties=species:S:1:pos:R:3 gdb_84869=T pbc="F F F"
O        0.77830000      -0.30020000       0.95460000
C       -0.13430000      -0.27020000      -0.14330000
C       -1.46470000       0.31010000       0.30170000
C       -2.51390000       0.66490000      -0.43720000
C       -2.62470000       0.66790000      -1.95100000
C       -2.11800000      -0.55660000      -2.68130000
C       -0.84400000      -0.76030000      -3.03800000
C        0.25720000       0.11290000      -2.62110000
C        0.52060000       0.39360000      -1.34070000
H        0.88610000       0.60510000       1.26720000
H       -0.29500000      -1.32680000      -0.39170000
H       -1.54550000       0.37910000       1.38510000
H       -3.39450000       1.02410000       0.09060000
H       -3.67630000       0.81670000      -2.21530000
H       -2.08620000       1.54740000      -2.32820000
H       -2.86990000      -1.28020000      -2.98730000
H       -0.60130000      -1.60440000      -3.68200000
H        0.89430000       0.53400000      -3.39760000
H        1.33190000       1.07490000      -1.09210000
