20
Properties=species:S:1:pos:R:3 gdb_93354=T pbc="F F F"
C       -0.46310000       1.55000000       0.02490000
C       -0.01270000       0.08720000      -0.01800000
C        0.57630000      -0.32020000      -1.38390000
C        2.06600000       0.04210000      -1.51720000
C        2.84610000      -0.72190000      -0.45890000
O        3.84800000      -1.35750000      -0.69960000
C        2.24700000      -0.70080000       0.91280000
C        1.95120000       0.64630000       1.51030000
N        0.86990000      -0.23590000       1.13350000
H        0.33410000       2.24370000      -0.26130000
H       -1.29760000       1.70260000      -0.66590000
H       -0.79930000       1.81780000       1.03070000
H       -0.90710000      -0.52670000       0.14160000
H        0.47400000      -1.40480000      -1.50880000
H       -0.00830000       0.14030000      -2.18790000
H        2.46950000      -0.22740000      -2.49580000
H        2.21290000       1.12160000      -1.38810000
H        2.58950000      -1.50510000       1.55850000
H        2.09590000       0.78930000       2.57830000
H        2.17810000       1.52130000       0.90610000
