17
Properties=species:S:1:pos:R:3 gdb_74871=T pbc="F F F"
C        0.02390000       1.48700000      -0.05700000
C       -0.01230000      -0.00360000      -0.05200000
N       -0.08660000      -0.72830000      -1.10650000
C       -0.04120000      -2.11380000      -0.71400000
C        1.23010000      -2.59620000      -0.05080000
C        0.06890000      -2.15070000       0.80170000
N        0.04510000      -0.74950000       1.15500000
C        0.01650000      -0.28690000       2.44890000
O       -0.01770000       0.87370000       2.78750000
H        0.94660000       1.85780000       0.39770000
H       -0.04210000       1.82550000      -1.09140000
H       -0.79670000       1.90150000       0.53300000
H       -0.63930000      -2.80290000      -1.29780000
H        1.42070000      -3.66330000      -0.07830000
H        2.11040000      -1.96480000      -0.10830000
H       -0.45790000      -2.82840000       1.46140000
H        0.03010000      -1.12560000       3.17100000
