16
Properties=species:S:1:pos:R:3 gdb_56354=T pbc="F F F"
N        0.34970000       1.18880000       0.71560000
C        0.23730000      -0.07330000       0.18370000
N        1.14830000      -0.82730000      -0.30400000
C        2.51090000      -0.31160000      -0.34800000
C        3.21940000      -0.33610000       0.98950000
C        4.27790000       0.62960000       1.30650000
O        2.96890000       0.77540000       1.87260000
C       -1.12730000      -0.57530000       0.13310000
N       -2.22270000      -0.94300000       0.11200000
H        1.24190000       1.43250000       1.13210000
H       -0.46480000       1.57500000       1.16510000
H        3.07790000      -0.94260000      -1.04180000
H        2.54130000       0.71890000      -0.73650000
H        3.22480000      -1.29910000       1.49840000
H        5.05690000       0.36750000       2.01920000
H        4.55320000       1.38310000       0.57070000
