18
Properties=species:S:1:pos:R:3 gdb_56437=T pbc="F F F"
C       -0.07470000       1.79180000       1.30210000
C       -0.31670000       0.87950000       0.08240000
C        0.38470000      -0.39400000       0.20540000
C        1.00190000      -1.41780000       0.33090000
C       -1.83280000       0.75530000      -0.19890000
O       -2.59260000       1.66900000       0.03140000
N       -2.25890000      -0.46720000      -0.68650000
C       -1.87850000      -1.08200000      -1.94120000
C       -3.28530000      -0.61690000      -1.68780000
H        0.99030000       2.01240000       1.40170000
H       -0.63440000       2.71950000       1.17780000
H       -0.41360000       1.30090000       2.21790000
H        0.07900000       1.39920000      -0.80470000
H        1.53450000      -2.32960000       0.44300000
H       -1.27300000      -0.49900000      -2.63110000
H       -1.63110000      -2.13820000      -1.89570000
H       -4.05940000      -1.34640000      -1.46860000
H       -3.62640000       0.28900000      -2.18190000
