17
Properties=species:S:1:pos:R:3 gdb_20905=T pbc="F F F"
C       -0.06770000       1.51880000       0.04050000
C        0.03690000      -0.00640000       0.02080000
N        0.74100000      -0.52980000       1.18120000
N        2.05700000      -0.69920000       1.19230000
C        2.30830000      -1.10250000       2.43870000
C        1.10130000      -1.15760000       3.15770000
C        0.83400000      -1.55500000       4.57330000
N        0.11990000      -0.78170000       2.33030000
H        0.92700000       1.97260000       0.04400000
H       -0.60490000       1.86780000      -0.84650000
H       -0.60920000       1.85580000       0.92840000
H       -0.95320000      -0.46730000       0.01940000
H        0.58710000      -0.35140000      -0.85700000
H        3.31330000      -1.33710000       2.75320000
H        1.38730000      -0.92490000       5.27770000
H       -0.23140000      -1.45970000       4.79200000
H        1.13120000      -2.59220000       4.76210000
