22
Properties=species:S:1:pos:R:3 gdb_87997=T pbc="F F F"
C       -0.05280000       1.20510000      -0.39100000
N        0.33280000      -0.16860000      -0.09810000
C        1.75310000      -0.41260000       0.17940000
C        0.74020000      -0.48100000       1.25730000
C        0.71340000       0.35870000       2.54360000
C        0.70570000      -0.98350000       3.33530000
C        0.31510000      -1.74270000       2.03820000
C       -1.17400000      -2.04550000       1.90800000
O        1.09560000      -2.90650000       1.84470000
H        0.53050000       1.95870000       0.16260000
H        0.07540000       1.39410000      -1.46160000
H       -1.11090000       1.34570000      -0.14700000
H        2.17210000      -1.32440000      -0.23770000
H        2.42650000       0.44480000       0.18190000
H        1.55260000       1.03290000       2.72460000
H       -0.21770000       0.92170000       2.66340000
H        1.70860000      -1.27700000       3.65130000
H        0.01950000      -1.06620000       4.18090000
H       -1.78310000      -1.16720000       2.14320000
H       -1.41340000      -2.33880000       0.87950000
H       -1.45570000      -2.85530000       2.58820000
H        0.73320000      -3.38720000       1.09270000
