23
Properties=species:S:1:pos:R:3 gdb_103997=T pbc="F F F"
C       -0.01900000       1.56470000       0.10370000
C       -0.10820000       0.04200000      -0.05500000
C        0.72140000      -0.50690000      -1.21840000
O        0.27740000       0.03700000      -2.45710000
C        2.29130000      -0.47190000      -1.11150000
C        2.31930000      -1.98470000      -1.35040000
C        1.53980000      -2.67270000      -0.26540000
C        0.78960000      -2.03820000      -1.40800000
C       -0.13000000      -2.80570000      -2.31460000
H        1.01660000       1.89480000       0.24420000
H       -0.42600000       2.08680000      -0.76950000
H       -0.59300000       1.90230000       0.97140000
H        0.21670000      -0.43620000       0.87510000
H       -1.15340000      -0.25050000      -0.21360000
H        0.44910000       0.98410000      -2.44390000
H        2.71480000       0.10830000      -1.93410000
H        2.72500000      -0.12940000      -0.16490000
H        3.04110000      -2.51190000      -1.96300000
H        1.55580000      -3.75820000      -0.29120000
H        1.51670000      -2.26140000       0.74140000
H       -1.12630000      -2.92390000      -1.87100000
H       -0.24830000      -2.29160000      -3.27180000
H        0.26470000      -3.80910000      -2.50630000
