16
Properties=species:S:1:pos:R:3 gdb_105557=T pbc="F F F"
C       -0.08590000       1.61260000      -0.01970000
C        0.07440000       0.09160000       0.03720000
C        0.75860000      -0.49680000      -1.21590000
C        0.65010000      -2.03400000      -1.40060000
O       -0.23520000      -1.84760000      -2.54830000
C       -0.15350000      -0.48740000      -2.47900000
O       -0.67400000       0.32510000      -3.16610000
C        2.09000000       0.05120000      -1.43010000
N        3.15270000       0.47750000      -1.58800000
H        0.88710000       2.11010000      -0.06760000
H       -0.66480000       1.91330000      -0.89680000
H       -0.60430000       1.96890000       0.87430000
H        0.66250000      -0.20140000       0.91410000
H       -0.90530000      -0.39040000       0.13270000
H        1.56580000      -2.54770000      -1.69370000
H        0.13750000      -2.56210000      -0.59500000
