17
Properties=species:S:1:pos:R:3 gdb_67402=T pbc="F F F"
C       -0.10760000       1.52750000      -0.09470000
C        0.01590000       0.04430000      -0.01130000
C        0.61160000      -1.02060000      -0.90230000
C        1.36270000      -1.65660000       0.26060000
C        0.29540000      -0.97780000       1.17020000
N       -1.00390000      -1.64650000       0.87050000
C       -0.89630000      -1.07040000      -0.46880000
C       -1.95690000      -1.03500000      -1.41970000
N       -2.80700000      -1.00180000      -2.20480000
H        0.84630000       2.01790000       0.12790000
H       -0.41250000       1.82910000      -1.10190000
H       -0.85620000       1.90240000       0.61060000
H        0.88550000      -0.94670000      -1.94690000
H        1.44800000      -2.74780000       0.31650000
H        2.34770000      -1.19910000       0.38470000
H        0.49180000      -0.74100000       2.21380000
H       -0.94360000      -2.66690000       0.88750000
