16
Properties=species:S:1:pos:R:3 gdb_18941=T pbc="F F F"
C       -0.08130000      -1.27930000      -0.09800000
C       -0.06370000      -0.07690000      -0.05990000
C       -0.03940000       1.37170000      -0.01100000
C        0.01880000       2.07300000       1.37310000
C        1.55370000       1.80320000       1.54360000
C        1.84850000       3.28410000       1.85570000
C        0.74270000       3.33050000       0.78260000
C        1.33340000       2.09660000       0.01940000
H       -0.09830000      -2.34030000      -0.13300000
H       -0.76660000       1.80200000      -0.70970000
H       -0.73330000       2.06410000       2.16310000
H        2.00210000       0.90340000       1.96330000
H        1.58010000       3.64050000       2.85540000
H        2.83340000       3.66300000       1.56470000
H        0.25490000       4.19210000       0.32400000
H        2.10100000       2.11500000      -0.75540000
