14
Properties=species:S:1:pos:R:3 gdb_21722=T pbc="F F F"
N       -0.46430000       1.31020000       0.21550000
C        0.35430000       0.14100000      -0.10280000
C        0.88720000      -0.47070000       1.15270000
C        0.49540000      -0.40250000       2.45180000
C        1.44180000      -1.23530000       3.10930000
O        1.46660000      -1.48780000       4.42730000
N        2.32380000      -1.75610000       2.29010000
O        1.96940000      -1.25920000       1.02770000
H        0.12710000       2.06610000       0.54720000
H       -0.92490000       1.64530000      -0.62390000
H       -0.28570000      -0.59190000      -0.61150000
H        1.20470000       0.32780000      -0.77900000
H       -0.33270000       0.14040000       2.87080000
H        2.21020000      -2.08210000       4.59560000
