15
Properties=species:S:1:pos:R:3 gdb_44833=T pbc="F F F"
N       -0.04560000       1.26950000      -0.02810000
C       -0.02980000       0.01500000      -0.00670000
O        1.10100000      -0.79170000      -0.00430000
C        0.60360000      -2.13330000       0.01430000
C       -0.63060000      -2.06320000      -0.88630000
C       -1.21490000      -0.94060000       0.01490000
C       -1.12100000      -1.64940000       1.35910000
N       -1.92340000      -1.59480000       2.32230000
O        0.05180000      -2.39210000       1.30900000
H        0.90360000       1.64800000      -0.04280000
H        1.41700000      -2.82620000      -0.18020000
H       -0.40300000      -1.74300000      -1.90370000
H       -1.21610000      -2.98330000      -0.88590000
H       -2.17580000      -0.49040000      -0.20420000
H       -1.60560000      -2.17940000       3.09790000
