21
Properties=species:S:1:pos:R:3 gdb_94687=T pbc="F F F"
C       -0.11800000       1.44350000      -0.14100000
C        0.01260000      -0.05690000       0.06530000
O        0.70970000      -0.60480000      -1.06380000
C        1.31620000      -1.82790000      -0.67990000
C        1.65830000      -1.66360000       0.79200000
O        1.96440000      -2.79040000       1.54860000
C        2.30820000      -0.37190000       1.17250000
C        0.79780000      -0.51690000       1.28920000
C        0.13320000      -0.53190000       2.64120000
H        0.86590000       1.92080000      -0.14500000
H       -0.60820000       1.65380000      -1.09580000
H       -0.71870000       1.88800000       0.65870000
H       -0.99710000      -0.50340000       0.12480000
H        0.62590000      -2.68340000      -0.80110000
H        2.18170000      -1.99270000      -1.33000000
H        1.19670000      -3.37440000       1.54520000
H        2.86020000      -0.37900000       2.10590000
H        2.72820000       0.25220000       0.38990000
H        0.71910000      -1.12720000       3.34810000
H        0.02840000       0.47660000       3.05650000
H       -0.87060000      -0.97090000       2.58490000
