16
Properties=species:S:1:pos:R:3 gdb_8930=T pbc="F F F"
O       -0.08620000       1.40570000      -0.21220000
C        0.01720000       0.01210000       0.07530000
C       -1.41030000      -0.52710000       0.01060000
O       -1.99570000      -0.20400000      -1.23250000
C       -1.43780000      -2.06190000       0.15130000
O       -0.72270000      -2.48090000       1.31250000
C       -2.80620000      -2.57780000       0.14630000
C       -3.92890000      -3.00120000       0.21510000
H        0.79420000       1.75050000      -0.38360000
H        0.63290000      -0.50180000      -0.67810000
H        0.45140000      -0.16920000       1.06500000
H       -1.98660000      -0.08770000       0.84300000
H       -1.72670000       0.70600000      -1.41320000
H       -0.89080000      -2.47760000      -0.70380000
H       -1.32560000      -2.41680000       2.06120000
H       -4.92110000      -3.37840000       0.25060000
