19
Properties=species:S:1:pos:R:3 gdb_120278=T pbc="F F F"
C        0.69980000       1.42820000       0.00080000
O        0.77000000       0.02340000       0.05090000
C       -0.14780000      -0.53900000       0.96710000
C        0.04080000      -2.04160000       0.95080000
C        1.28200000      -2.61500000       1.64260000
O        1.15790000      -2.32370000       3.04670000
C        0.47620000      -3.47720000       2.52160000
C       -0.83550000      -2.92410000       1.94000000
O       -1.68470000      -2.27410000       2.84580000
H        0.92730000       1.88470000       0.97720000
H        1.43970000       1.76780000      -0.72830000
H       -0.29630000       1.77700000      -0.31510000
H        0.02760000      -0.14160000       1.97910000
H       -1.18440000      -0.28460000       0.69090000
H       -0.04840000      -2.41300000      -0.07450000
H        2.28450000      -2.75540000       1.25860000
H        0.69000000      -4.43150000       2.98910000
H       -1.43440000      -3.66490000       1.40580000
H       -1.10820000      -1.78900000       3.45030000
