18
Properties=species:S:1:pos:R:3 gdb_90424=T pbc="F F F"
C       -0.06900000       1.39230000      -0.12960000
N       -0.03200000      -0.03080000       0.09120000
C       -1.08250000      -1.04520000       0.05270000
C       -1.54870000      -1.43420000      -1.37870000
C       -0.43900000      -2.53750000      -1.42070000
O        0.56460000      -2.43940000      -2.39830000
C        0.04930000      -2.12420000      -0.00370000
C        1.02090000      -0.92170000      -0.00300000
O        2.20830000      -0.75090000      -0.06070000
H        0.96400000       1.74360000      -0.18820000
H       -0.57960000       1.64490000      -1.06840000
H       -0.57430000       1.91360000       0.69150000
H       -1.82300000      -0.98280000       0.85160000
H       -2.56570000      -1.83060000      -1.43170000
H       -1.43020000      -0.64210000      -2.12210000
H       -0.88100000      -3.54290000      -1.40080000
H        0.19510000      -2.71240000      -3.24430000
H        0.20800000      -2.90190000       0.74010000
