13
Properties=species:S:1:pos:R:3 gdb_129747=T pbc="F F F"
N       -0.10610000       1.38310000       0.30240000
C       -0.03080000       0.00890000       0.05650000
C       -1.03030000      -0.87530000      -0.21140000
O       -2.34470000      -0.65620000      -0.44930000
C       -3.26610000      -1.38880000       0.27450000
O       -4.42950000      -1.27490000       0.07530000
O       -0.56650000      -2.13700000      -0.29680000
N        0.80800000      -2.10950000      -0.07890000
C        1.10480000      -0.84770000       0.12840000
H        0.64180000       1.90400000      -0.13790000
H       -0.99650000       1.77340000       0.01950000
H       -2.78420000      -2.04990000       1.01120000
H        2.13260000      -0.57730000       0.32840000
