14
Properties=species:S:1:pos:R:3 gdb_28977=T pbc="F F F"
N       -0.00660000       1.37830000       0.09650000
C       -0.00120000       0.02050000       0.03210000
C       -1.18480000      -0.73550000       0.02230000
C       -1.10760000      -2.11580000      -0.00860000
N        0.03590000      -2.82010000      -0.03150000
C        1.15820000      -2.11210000      -0.02510000
C        1.21160000      -0.71270000       0.00400000
C        2.45160000      -0.01530000      -0.00100000
N        3.43040000       0.60640000      -0.00940000
H        0.85210000       1.88400000      -0.05100000
H       -0.86300000       1.87830000      -0.06700000
H       -2.14920000      -0.23920000       0.04190000
H       -2.02400000      -2.70100000      -0.01610000
H        2.09170000      -2.66880000      -0.04650000
