13
Properties=species:S:1:pos:R:3 gdb_3112=T pbc="F F F"
C        0.02150000      -1.21070000       0.09180000
C        0.05780000      -0.01080000       0.01740000
C        0.06190000       1.40440000      -0.11910000
C       -0.72470000       2.27160000      -1.12400000
C        0.43920000       3.32110000      -1.06580000
C        1.15290000       2.41080000      -0.05910000
O        0.27400000       2.22440000       1.04760000
H       -0.00300000      -2.26950000       0.16970000
H       -0.82050000       1.80240000      -2.10480000
H       -1.70550000       2.59340000      -0.76890000
H        0.96840000       3.41030000      -2.01700000
H        0.19200000       4.31540000      -0.68790000
H        2.21350000       2.27750000       0.12150000
