21
Properties=species:S:1:pos:R:3 gdb_90276=T pbc="F F F"
C        0.07910000       1.54990000       0.01670000
C        0.09820000       0.02250000       0.00990000
C        0.86880000      -0.60460000      -1.19990000
C        1.48060000      -1.82920000      -0.58610000
C        1.40410000      -1.83610000       0.74140000
C        2.09540000      -3.04230000       1.29160000
O        2.54820000      -3.75350000       0.13140000
C        2.23120000      -3.03010000      -1.06570000
C        0.72520000      -0.61760000       1.29360000
H        1.09590000       1.95530000       0.07740000
H       -0.38320000       1.94690000      -0.89350000
H       -0.48490000       1.93780000       0.87180000
H       -0.93600000      -0.33630000      -0.05160000
H        0.20240000      -0.81310000      -2.04530000
H        1.64270000       0.07870000      -1.58070000
H        2.95520000      -2.78920000       1.93380000
H        1.43360000      -3.69420000       1.88320000
H        1.64210000      -3.67540000      -1.73610000
H        3.15890000      -2.77080000      -1.60230000
H        1.44990000       0.06130000       1.76780000
H       -0.03370000      -0.83440000       2.05460000
