15
Properties=species:S:1:pos:R:3 gdb_29215=T pbc="F F F"
N        0.07220000       1.44800000       0.15070000
C        0.01390000       0.04660000       0.04350000
C       -1.14080000      -0.67330000       0.01350000
N       -1.12630000      -2.04360000      -0.01810000
C        0.02110000      -2.84890000      -0.02380000
O       -0.07400000      -4.06850000      -0.05330000
C        1.24130000      -2.07360000       0.00310000
C        1.23640000      -0.70960000       0.03400000
O        2.36430000       0.04830000       0.04630000
H        0.94490000       1.81700000      -0.20230000
H       -0.70940000       1.91680000      -0.28700000
H       -2.11680000      -0.20390000       0.01830000
H       -1.99570000      -2.55570000      -0.04060000
H        2.17000000      -2.63370000      -0.00830000
H        3.13570000      -0.52870000       0.02290000
