19
Properties=species:S:1:pos:R:3 gdb_104514=T pbc="F F F"
C        0.03930000       1.37320000      -0.00250000
N        0.18990000      -0.07190000       0.15540000
C        1.51850000      -0.65470000       0.00830000
C        0.84460000      -0.61550000       1.34010000
C        1.38450000       0.28110000       2.45910000
O        2.39210000       1.19640000       2.06880000
C        0.18520000      -1.89940000       1.85320000
C       -0.90660000      -1.63340000       2.79190000
N       -1.75660000      -1.40290000       3.54020000
H        0.89100000       1.95590000       0.36820000
H       -0.10220000       1.58670000      -1.06620000
H       -0.86490000       1.69220000       0.52510000
H        1.57800000      -1.58280000      -0.55690000
H        2.35470000       0.02550000      -0.14090000
H        0.56780000       0.88820000       2.86350000
H        1.73280000      -0.36250000       3.28080000
H        3.19370000       0.69680000       1.88420000
H       -0.21580000      -2.45460000       1.00090000
H        0.92360000      -2.53890000       2.35190000
