21
Properties=species:S:1:pos:R:3 gdb_122789=T pbc="F F F"
C       -0.12550000       1.58890000       0.24750000
C       -0.05950000       0.08470000      -0.02980000
C       -1.41450000      -0.61510000       0.12200000
C       -1.35100000      -2.12030000      -0.15490000
C       -2.70620000      -2.80870000      -0.00110000
C       -2.67110000      -4.29280000      -0.26830000
O       -1.68630000      -4.92350000      -0.57820000
C       -3.99570000      -5.06100000      -0.13500000
O       -5.03970000      -4.54600000       0.16640000
H        0.85540000       2.06010000       0.13140000
H       -0.81810000       2.08810000      -0.43930000
H       -0.47220000       1.78870000       1.26750000
H        0.32280000      -0.08600000      -1.04470000
H        0.66600000      -0.38310000       0.64860000
H       -1.79890000      -0.44500000       1.13770000
H       -2.14220000      -0.14780000      -0.55630000
H       -0.97030000      -2.29880000      -1.16760000
H       -0.62840000      -2.59480000       0.51950000
H       -3.12470000      -2.66490000       1.00520000
H       -3.46360000      -2.37160000      -0.66740000
H       -3.88350000      -6.14560000      -0.34790000
