20
Properties=species:S:1:pos:R:3 gdb_80794=T pbc="F F F"
C       -0.11740000       1.64550000       0.17680000
C        0.00920000       0.13160000       0.11460000
C        1.14120000      -0.58590000      -0.69560000
C        2.14340000      -0.16440000       0.41920000
C        0.86740000      -0.66720000       1.16460000
C        0.65410000      -0.73240000       2.58820000
N        0.46960000      -0.78720000       3.72920000
C        0.87560000      -1.87490000       0.15450000
C       -0.33120000      -2.77650000      -0.04610000
H        0.83220000       2.16760000       0.31130000
H       -0.57090000       2.01730000      -0.74850000
H       -0.77590000       1.93530000       1.00240000
H       -0.98270000      -0.29730000      -0.03600000
H        1.30610000      -0.53800000      -1.77200000
H        3.03410000      -0.78570000       0.53620000
H        2.38610000       0.89220000       0.51540000
H        1.77300000      -2.49120000       0.27220000
H       -1.27170000      -2.24170000      -0.19380000
H       -0.17310000      -3.41490000      -0.92190000
H       -0.45650000      -3.43460000       0.82010000
