24
Properties=species:S:1:pos:R:3 gdb_122215=T pbc="F F F"
C        0.17760000       1.49650000      -0.30100000
C       -0.03750000       0.00900000      -0.00970000
C        0.76590000      -0.49060000       1.19630000
C        0.53950000      -1.98320000       1.48720000
C        1.38450000      -2.55120000       2.61410000
C        1.08040000      -2.03850000       4.02090000
O        2.01620000      -2.50270000       4.96700000
C        1.94050000      -3.92040000       2.47970000
N        2.83420000      -2.74330000       2.40120000
H        1.23180000       1.71110000      -0.50880000
H       -0.40540000       1.82190000      -1.16810000
H       -0.12210000       2.11450000       0.55260000
H       -1.10520000      -0.18070000       0.16370000
H        0.23360000      -0.58170000      -0.89510000
H        1.83540000      -0.31090000       1.02040000
H        0.50110000       0.10840000       2.07610000
H       -0.52130000      -2.15100000       1.71980000
H        0.74120000      -2.55820000       0.57330000
H        1.04630000      -0.93670000       4.00670000
H        0.09030000      -2.39090000       4.33550000
H        2.87450000      -2.43360000       4.52180000
H        2.08490000      -4.52930000       3.36610000
H        1.73220000      -4.46990000       1.56570000
H        3.08760000      -2.54800000       1.43630000
