16
Properties=species:S:1:pos:R:3 gdb_29804=T pbc="F F F"
C        0.02440000       1.43400000       0.03730000
N       -0.02800000      -0.01490000       0.01850000
C       -0.00860000      -0.79130000      -1.11010000
C       -0.00230000      -2.12840000      -0.73800000
N       -0.06930000      -3.23820000      -1.59340000
C       -0.01220000      -2.16090000       0.67440000
C       -0.02410000      -0.84330000       1.11850000
C       -0.03480000      -0.34040000       2.43550000
N       -0.04310000       0.08520000       3.51520000
H        1.01680000       1.79880000      -0.24900000
H       -0.71700000       1.84410000      -0.65380000
H       -0.20090000       1.78680000       1.04440000
H       -0.00870000      -0.33850000      -2.08900000
H        0.32730000      -3.06040000      -2.50680000
H        0.36440000      -4.06160000      -1.19740000
H       -0.02600000      -3.03350000       1.30850000
