17
Properties=species:S:1:pos:R:3 gdb_87604=T pbc="F F F"
O        0.06210000       1.38180000      -0.01960000
C        0.07670000      -0.00740000       0.03440000
C       -0.41620000      -0.74820000       1.25030000
C       -1.23330000      -0.75920000      -0.03180000
N       -2.41760000       0.07450000      -0.07480000
C       -3.30750000      -0.57960000      -0.71100000
N       -2.99720000      -1.89400000      -1.16990000
C       -1.95860000      -1.84680000      -2.24000000
C       -1.55050000      -2.00330000      -0.82320000
H       -0.86640000       1.64840000       0.02670000
H        0.92530000      -0.42170000      -0.50260000
H        0.07990000      -1.67190000       1.53340000
H       -0.81160000      -0.15930000       2.07050000
H       -4.30350000      -0.19410000      -0.90390000
H       -1.96450000      -2.70800000      -2.90010000
H       -1.78500000      -0.88840000      -2.72150000
H       -1.21770000      -2.96990000      -0.45900000
