19
Properties=species:S:1:pos:R:3 gdb_52667=T pbc="F F F"
C       -0.04580000       1.48440000       0.07430000
C       -0.03610000       0.02900000       0.04260000
C       -0.00740000      -1.17430000       0.02080000
C       -0.01410000      -2.63420000      -0.02420000
C       -1.46000000      -3.17000000      -0.08380000
C        0.86530000      -3.12070000      -1.22210000
O        2.15620000      -2.59250000      -1.13880000
C        0.93520000      -4.63560000      -1.29640000
O        1.98950000      -5.22080000      -1.21670000
H        0.79830000       1.89620000      -0.48970000
H       -0.96580000       1.88900000      -0.36190000
H        0.02710000       1.86030000       1.10090000
H        0.46940000      -3.01460000       0.88600000
H       -1.93330000      -2.91050000      -1.03630000
H       -1.49830000      -4.25600000       0.03990000
H       -2.05370000      -2.71960000       0.71460000
H        0.36650000      -2.77970000      -2.14720000
H        2.75050000      -3.35880000      -1.09950000
H       -0.01590000      -5.18210000      -1.44110000
