21
Properties=species:S:1:pos:R:3 gdb_83117=T pbc="F F F"
C        0.15010000       1.63880000       0.10960000
C        0.09860000       0.12570000       0.10760000
C        1.26780000      -0.76570000      -0.30300000
C        2.63110000      -0.20090000      -0.66830000
C        3.36070000       0.46100000       0.46820000
C        2.94150000       0.47040000       1.73150000
C        1.67760000      -0.18640000       2.21620000
C        0.78940000      -0.75950000       1.12140000
O        0.09870000      -1.92740000       1.50310000
H        1.11750000       2.02210000       0.44000000
H       -0.03890000       2.03480000      -0.89490000
H       -0.61840000       2.05510000       0.77120000
H       -0.86260000      -0.27930000      -0.20060000
H        0.97790000      -1.64730000      -0.86560000
H        3.25860000      -1.01700000      -1.05380000
H        2.54110000       0.50560000      -1.50670000
H        4.29820000       0.94970000       0.21300000
H        3.54070000       0.96610000       2.49170000
H        1.94270000      -1.02340000       2.87620000
H        1.11270000       0.51770000       2.84650000
H       -0.59770000      -1.66820000       2.11700000
