22
Properties=species:S:1:pos:R:3 gdb_103566=T pbc="F F F"
C        0.11850000       1.60270000       0.12870000
C       -0.23480000       0.13650000      -0.14820000
C        0.60750000      -0.51500000      -1.24250000
C        0.52010000       0.17650000      -2.59270000
O        2.02690000      -0.57990000      -0.80170000
C        2.00510000      -1.95410000      -0.77580000
N        2.87940000      -2.77930000      -0.41380000
C        0.59130000      -2.07920000      -1.30210000
C       -0.39560000      -2.91620000      -0.49880000
H        1.18720000       1.70630000       0.33760000
H       -0.12860000       2.25350000      -0.71490000
H       -0.43390000       1.96910000       0.99870000
H       -0.10500000      -0.43750000       0.77470000
H       -1.29260000       0.04670000      -0.42620000
H        0.84790000       1.21700000      -2.52920000
H        1.15230000      -0.33270000      -3.32530000
H       -0.51210000       0.16400000      -2.95940000
H        3.72710000      -2.30440000      -0.09790000
H        0.59690000      -2.42140000      -2.34220000
H       -0.41470000      -2.63610000       0.55710000
H       -1.41050000      -2.82570000      -0.89890000
H       -0.10300000      -3.96860000      -0.55250000
