20
Properties=species:S:1:pos:R:3 gdb_92143=T pbc="F F F"
C       -0.15820000       1.50140000      -0.04830000
C        0.08980000       0.02950000       0.04300000
C        0.82070000      -0.84270000      -0.89590000
C        1.76790000      -1.79920000      -0.18200000
O        3.09130000      -1.44690000      -0.56390000
C        1.46290000      -1.55290000       1.32170000
C        0.08350000      -0.88580000       1.30390000
C       -0.91870000      -1.76100000       0.51710000
N       -0.66050000      -1.01190000      -0.75940000
H        0.66520000       2.06570000       0.40470000
H       -0.24530000       1.80920000      -1.09440000
H       -1.08370000       1.78550000       0.46500000
H        1.10900000      -0.49680000      -1.88250000
H        1.56250000      -2.84140000      -0.46900000
H        3.69500000      -2.07160000      -0.15020000
H        1.48110000      -2.46940000       1.92220000
H        2.22230000      -0.86500000       1.71060000
H       -0.24530000      -0.47190000       2.25740000
H       -0.73340000      -2.84130000       0.47580000
H       -1.96100000      -1.59340000       0.79910000
