18
Properties=species:S:1:pos:R:3 gdb_90754=T pbc="F F F"
O        0.34900000       1.23350000      -0.44610000
C        0.09420000      -0.09590000      -0.05800000
C        0.26670000      -0.43630000       1.45100000
C       -1.27400000      -0.63880000       1.57760000
C       -1.41660000      -0.52130000       0.03370000
C       -2.42950000       0.59440000      -0.18040000
O       -2.42520000       1.35910000       1.04450000
C       -1.98730000       0.58890000       2.09630000
N       -2.12180000       0.90250000       3.31110000
H       -0.09470000       1.82600000       0.17260000
H        0.68740000      -0.71360000      -0.73570000
H        0.83080000      -1.35590000       1.62250000
H        0.69640000       0.35620000       2.06890000
H       -1.60990000      -1.53890000       2.09050000
H       -1.66090000      -1.43010000      -0.51690000
H       -2.15710000       1.27100000      -0.99350000
H       -3.44100000       0.20860000      -0.35220000
H       -2.63360000       1.78200000       3.40200000
