18
Properties=species:S:1:pos:R:3 gdb_28270=T pbc="F F F"
C       -0.01920000       1.46340000       0.07160000
C       -0.00080000      -0.02610000      -0.02050000
C       -0.03340000      -0.80800000      -1.11780000
C        0.00280000      -2.20480000      -0.73040000
C        0.00350000      -3.50530000      -1.19380000
C        0.06210000      -4.34390000      -0.04260000
C        0.09530000      -3.53830000       1.08050000
N        0.05870000      -2.24180000       0.64720000
C        0.06200000      -0.90790000       1.22120000
H        0.87560000       1.85110000       0.57660000
H       -0.06520000       1.91660000      -0.92200000
H       -0.88230000       1.82520000       0.64610000
H       -0.07960000      -0.45790000      -2.14040000
H       -0.03320000      -3.82250000      -2.22430000
H        0.07840000      -5.42340000      -0.03620000
H        0.14100000      -3.78730000       2.12860000
H        0.96900000      -0.72180000       1.81190000
H       -0.79970000      -0.74790000       1.88300000
