15
Properties=species:S:1:pos:R:3 gdb_21280=T pbc="F F F"
C        0.06630000       1.40180000      -0.04500000
O        0.02300000      -0.02300000      -0.03460000
C        0.60660000      -0.63030000      -1.07540000
N        1.20210000       0.00550000      -2.08230000
N        1.62420000      -0.99690000      -2.86360000
C        2.34740000      -0.75380000      -4.09120000
N        1.34540000      -2.21700000      -2.43180000
C        0.69180000      -2.01810000      -1.28670000
H        1.10020000       1.76260000      -0.04170000
H       -0.44070000       1.80300000      -0.92890000
H       -0.44730000       1.72380000       0.86160000
H        3.28900000      -0.23800000      -3.88290000
H        2.54740000      -1.72300000      -4.54590000
H        1.74700000      -0.13960000      -4.76760000
H        0.32500000      -2.83440000      -0.68800000
