17
Properties=species:S:1:pos:R:3 gdb_88495=T pbc="F F F"
C        0.47540000       1.38780000      -0.45600000
C        0.04880000       0.03200000       0.04130000
O        1.06410000      -0.97790000       0.23600000
C        0.35220000      -0.50710000       1.37640000
C        1.19300000       0.23700000       2.39140000
C        2.35930000      -0.47640000       3.00010000
N        2.57540000       0.60930000       2.04330000
C        0.45120000       1.19650000       3.18160000
N       -0.18350000       1.93280000       3.80720000
H        1.31390000       1.79600000       0.11070000
H        0.76070000       1.32860000      -1.51110000
H       -0.36360000       2.08650000      -0.37490000
H       -0.84340000      -0.36990000      -0.44050000
H       -0.34300000      -1.22440000       1.81400000
H        2.64230000      -0.25650000       4.02430000
H        2.52090000      -1.50050000       2.67410000
H        2.75710000       0.20490000       1.12430000
