22
Properties=species:S:1:pos:R:3 gdb_85433=T pbc="F F F"
C        0.25190000       1.20410000      -0.51910000
N       -0.00820000      -0.12570000      -0.00890000
C       -1.41490000      -0.42910000       0.18530000
C       -1.41350000      -1.66880000       1.07620000
O       -2.37770000      -2.31600000       1.38940000
C        0.03110000      -1.90820000       1.49940000
C        0.75150000      -0.58070000       1.18620000
C        2.22430000      -0.80240000       0.82720000
C        0.63820000       0.38150000       2.38970000
H        1.32440000       1.35390000      -0.66840000
H       -0.23440000       1.31840000      -1.49410000
H       -0.12150000       2.01530000       0.13270000
H       -1.98740000       0.36730000       0.70170000
H       -1.93070000      -0.62290000      -0.76280000
H        0.09620000      -2.22720000       2.54180000
H        0.42960000      -2.71650000       0.87390000
H        2.30730000      -1.42770000      -0.06600000
H        2.74310000       0.14210000       0.63530000
H        2.74680000      -1.29740000       1.65200000
H        1.17300000      -0.02230000       3.25520000
H        1.07270000       1.35870000       2.15910000
H       -0.40370000       0.53820000       2.68900000
