17
Properties=species:S:1:pos:R:3 gdb_41283=T pbc="F F F"
C       -0.03130000       1.47960000       0.12990000
O        1.40900000       1.50810000      -0.15510000
C        1.38140000       0.11270000      -0.47620000
C        0.96710000      -0.39640000      -1.88940000
C       -0.11250000      -1.14700000      -1.08300000
C        0.60920000      -1.82360000       0.18180000
C        2.00920000      -1.10810000       0.19350000
O       -0.14070000      -0.95760000       1.09510000
C       -0.08510000      -0.05070000       0.00040000
H       -0.24730000       1.84070000       1.13970000
H       -0.60210000       2.05610000      -0.60510000
H        0.53030000       0.39570000      -2.50140000
H        1.69430000      -0.96550000      -2.47360000
H       -0.99120000      -1.64620000      -1.49270000
H        0.52640000      -2.88490000       0.41270000
H        2.79150000      -1.60100000      -0.38820000
H        2.33270000      -0.95780000       1.22370000
