21
Properties=species:S:1:pos:R:3 gdb_93049=T pbc="F F F"
O       -0.02090000       1.44160000      -0.07150000
C        0.02630000       0.02090000       0.01060000
C        0.84270000      -0.45890000       1.21910000
C        0.61760000      -1.91770000       1.52210000
C       -0.45980000      -2.59450000       1.12180000
C       -1.59430000      -1.99880000       0.34500000
C       -2.82990000      -1.62150000       1.23460000
C       -2.32110000      -0.15530000       1.26650000
C       -1.40720000      -0.48020000       0.05130000
H        0.88410000       1.76900000      -0.09650000
H        0.49360000      -0.39620000      -0.89810000
H        1.91020000      -0.27040000       1.04160000
H        0.57280000       0.15760000       2.08860000
H        1.38080000      -2.42180000       2.11020000
H       -0.56270000      -3.64380000       1.39360000
H       -1.83190000      -2.63030000      -0.51790000
H       -3.76880000      -1.72330000       0.68290000
H       -2.92540000      -2.14470000       2.18900000
H       -3.05920000       0.63670000       1.12800000
H       -1.75020000       0.06150000       2.17250000
H       -1.90640000      -0.19830000      -0.88020000
