17
Properties=species:S:1:pos:R:3 gdb_7646=T pbc="F F F"
C       -0.03920000       1.50980000       0.27260000
C        0.06130000      -0.00510000       0.18440000
O        1.10790000      -0.61970000       0.29740000
N       -1.11930000      -0.64880000      -0.02440000
C       -2.46420000      -0.22030000      -0.41570000
C       -2.82790000      -1.71200000      -0.62800000
O       -3.28800000      -1.94600000      -1.93420000
C       -1.33570000      -2.06250000      -0.32170000
H        0.93070000       1.90490000       0.57310000
H       -0.31210000       1.93560000      -0.69940000
H       -0.80230000       1.82080000       0.99320000
H       -3.02430000       0.31260000       0.35990000
H       -2.50590000       0.34700000      -1.35300000
H       -3.52430000      -2.10050000       0.12470000
H       -3.45450000      -2.88870000      -2.03580000
H       -0.78340000      -2.41460000      -1.20030000
H       -1.14690000      -2.73460000       0.52120000
