17
Properties=species:S:1:pos:R:3 gdb_125964=T pbc="F F F"
C       -0.27220000       1.44200000      -0.26640000
C       -0.01290000      -0.03300000      -0.08750000
C        1.33160000      -0.61460000      -0.36680000
N        0.84370000      -0.52850000       1.00710000
C        1.43730000       0.32180000       1.91460000
C        0.94160000       1.00910000       2.98910000
C        2.09820000       1.60170000       3.55020000
N        3.19570000       1.30940000       2.89510000
O        2.76960000       0.48880000       1.83600000
H        0.64160000       2.02940000      -0.14380000
H       -0.66800000       1.62790000      -1.26990000
H       -1.00790000       1.80640000       0.45800000
H       -0.87760000      -0.67390000      -0.24630000
H        1.42920000      -1.62390000      -0.75530000
H        2.12330000       0.07030000      -0.65840000
H       -0.07870000       1.05830000       3.32720000
H        2.17140000       2.23480000       4.42410000
