19
Properties=species:S:1:pos:R:3 gdb_31522=T pbc="F F F"
C       -0.35220000       1.43580000      -0.17420000
C        0.19270000       0.00760000      -0.00100000
C        0.92960000      -0.48700000      -1.19790000
N        2.18590000      -0.80140000      -1.29370000
C        2.35400000      -1.18540000      -2.61740000
N        3.62140000      -1.54030000      -3.08500000
C        1.16980000      -1.07930000      -3.27840000
C        0.71270000      -1.31720000      -4.66870000
O        0.24170000      -0.63100000      -2.35090000
H        0.46210000       2.14620000      -0.34450000
H       -1.03450000       1.49140000      -1.02680000
H       -0.89720000       1.74860000       0.72110000
H        0.88490000      -0.04190000       0.84290000
H       -0.63850000      -0.67460000       0.21710000
H        4.23260000      -1.76760000      -2.31140000
H        3.61010000      -2.29940000      -3.75300000
H       -0.00430000      -2.14490000      -4.74230000
H        0.23100000      -0.42890000      -5.09440000
H        1.57150000      -1.55930000      -5.30090000
