15
Properties=species:S:1:pos:R:3 gdb_45036=T pbc="F F F"
O        0.10470000      -0.06320000       0.09280000
C        0.01780000       1.12760000      -0.05910000
C       -1.33600000       1.79550000      -0.32680000
C       -1.28120000       3.21620000      -0.84110000
O       -0.65840000       4.17490000       0.00120000
C       -0.00570000       3.86310000      -1.23960000
C        1.25090000       3.05290000      -1.12790000
O        2.16000000       3.17460000      -1.91310000
C        1.24310000       2.04230000       0.00870000
H       -1.88420000       1.15590000      -1.02580000
H       -1.90250000       1.77840000       0.61340000
H       -2.18570000       3.57400000      -1.33240000
H        0.00230000       4.65060000      -1.98920000
H        1.16650000       2.60140000       0.95060000
H        2.15390000       1.44480000       0.00160000
