16
Properties=species:S:1:pos:R:3 gdb_103404=T pbc="F F F"
O       -0.02370000       1.42730000      -0.06720000
C        0.09540000       0.01240000      -0.01190000
C       -1.33070000      -0.52000000       0.06060000
O       -2.09640000       0.00710000      -0.99550000
C       -1.56660000      -2.02530000       0.17350000
C       -1.11450000      -2.56440000       1.46200000
N       -2.43990000      -1.87860000       1.42900000
C       -2.13050000      -0.45120000       1.40690000
O       -2.53580000       0.40980000       2.11830000
H        0.82780000       1.80560000      -0.30260000
H        0.56800000      -0.38880000      -0.92130000
H        0.68610000      -0.30790000       0.85700000
H       -1.88200000       0.94990000      -1.02330000
H       -1.91130000      -2.63200000      -0.65380000
H       -1.21120000      -3.63150000       1.63270000
H       -0.29830000      -2.09810000       2.00720000
