15
Properties=species:S:1:pos:R:3 gdb_9936=T pbc="F F F"
C       -0.04070000       1.55950000       0.03840000
C        0.04480000       0.05110000      -0.01270000
C        1.33350000      -0.67620000      -0.30710000
O        2.53100000       0.00630000      -0.44570000
C        0.73440000      -0.72780000       1.10440000
O        1.40890000       0.06200000       2.05230000
C        0.14520000      -1.93670000       1.61420000
N       -0.30370000      -2.92340000       2.02030000
H        0.90160000       2.01140000       0.35010000
H       -0.28540000       1.94650000      -0.95530000
H       -0.81950000       1.88510000       0.73370000
H       -0.84550000      -0.44610000      -0.38720000
H        1.30080000      -1.57140000      -0.91890000
H        2.69690000       0.45720000       0.39410000
H        2.01390000      -0.50930000       2.54170000
