17
Properties=species:S:1:pos:R:3 gdb_26493=T pbc="F F F"
O        0.29380000       1.30570000       0.36820000
C        0.05380000      -0.05820000       0.11250000
C       -0.50930000      -0.84440000       1.26970000
C       -1.36730000      -0.55760000       0.06150000
C        1.07340000      -0.68030000      -0.76300000
N        1.00580000      -1.84900000      -1.36570000
C        2.20880000      -1.99120000      -2.02090000
C        3.00520000      -0.89650000      -1.81510000
N        2.26290000      -0.06230000      -1.00660000
H       -0.04520000       1.80660000      -0.38270000
H       -0.14030000      -1.85340000       1.40890000
H       -0.70720000      -0.28040000       2.17400000
H       -2.14610000       0.18980000       0.16770000
H       -1.57300000      -1.36800000      -0.62760000
H        2.42740000      -2.87030000      -2.60790000
H        3.99060000      -0.63210000      -2.16000000
H        2.52660000       0.82850000      -0.62000000
