15
Properties=species:S:1:pos:R:3 gdb_36016=T pbc="F F F"
C        0.00670000      -1.24720000       0.01330000
C       -0.01480000      -0.04690000       0.03210000
C       -0.02290000       1.41090000       0.02050000
C        1.42070000       1.98610000       0.02470000
C        2.16900000       1.62580000       1.22540000
N        2.75610000       1.35450000       2.18220000
C       -0.78100000       1.96410000      -1.21800000
C       -2.19000000       1.58210000      -1.23500000
N       -3.30830000       1.29360000      -1.24080000
H        0.01530000      -2.30980000       0.01710000
H       -0.53400000       1.77400000       0.91960000
H        1.96420000       1.62340000      -0.85440000
H        1.37910000       3.07910000      -0.04310000
H       -0.71810000       3.05820000      -1.22670000
H       -0.30370000       1.60080000      -2.13450000
