19
Properties=species:S:1:pos:R:3 gdb_111867=T pbc="F F F"
O        0.13560000       1.04600000      -0.67490000
C        0.03260000       0.00640000       0.28280000
C       -1.34720000      -0.62870000       0.28860000
C       -1.90410000      -1.20870000      -0.99710000
O       -0.94430000      -1.42690000      -2.00580000
C       -0.34390000      -2.71750000      -1.79390000
C       -0.48910000      -3.04570000      -0.29140000
C       -1.61560000      -2.11330000       0.17010000
O       -2.60500000      -2.61240000       1.01470000
H       -0.02870000       0.62740000      -1.52890000
H        0.81170000      -0.75220000       0.12190000
H        0.23450000       0.46220000       1.25690000
H       -2.09630000      -0.12070000       0.88970000
H       -2.90220000      -0.96710000      -1.34840000
H       -0.86500000      -3.46540000      -2.40830000
H        0.69330000      -2.65780000      -2.13380000
H       -0.79470000      -4.08390000      -0.13270000
H        0.44300000      -2.89560000       0.26070000
H       -3.08570000      -3.30370000       0.54440000
