21
Properties=species:S:1:pos:R:3 gdb_104418=T pbc="F F F"
C        0.09430000       1.15510000       0.31270000
O        0.13570000      -0.23050000       0.02140000
C        0.68220000      -0.60030000      -1.24640000
C       -0.13510000      -0.05600000      -2.40750000
O        2.01150000      -0.16590000      -1.37580000
C        2.91730000      -1.13780000      -0.81210000
C        2.06510000      -2.32860000      -0.35640000
C        0.76480000      -2.14230000      -1.16210000
O       -0.38320000      -2.74210000      -0.62060000
H        1.05190000       1.63400000       0.08040000
H       -0.70710000       1.66840000      -0.23480000
H       -0.10290000       1.24640000       1.38360000
H       -0.11710000       1.03610000      -2.42980000
H        0.27890000      -0.41840000      -3.35130000
H       -1.16980000      -0.39690000      -2.31820000
H        3.63130000      -1.41510000      -1.59620000
H        3.47790000      -0.67630000       0.00770000
H        2.54530000      -3.29080000      -0.54380000
H        1.82800000      -2.26250000       0.70870000
H        0.88430000      -2.54150000      -2.17500000
H       -0.65150000      -2.16910000       0.11030000
