17
Properties=species:S:1:pos:R:3 gdb_63302=T pbc="F F F"
C        0.13940000       1.44250000      -0.07590000
C       -0.04760000      -0.05310000       0.10150000
C       -1.49740000      -0.49320000       0.01180000
O        0.76100000      -0.77340000      -0.93220000
C        1.55610000      -1.36400000      -0.00320000
O        2.49360000      -2.07690000      -0.16700000
C        0.79620000      -0.76670000       1.19170000
C        1.60560000      -0.03600000       2.23520000
O        1.39210000       1.08480000       2.61760000
H        1.19590000       1.71660000      -0.07170000
H       -0.29560000       1.75020000      -1.03160000
H       -0.35240000       1.98730000       0.73250000
H       -1.93690000      -0.16690000      -0.93510000
H       -1.58360000      -1.58160000       0.07420000
H       -2.07530000      -0.04900000       0.82840000
H        0.24820000      -1.56440000       1.70950000
H        2.43580000      -0.64700000       2.65060000
