23
Properties=species:S:1:pos:R:3 gdb_88159=T pbc="F F F"
C       -0.22430000       1.53400000      -0.02680000
C        0.04700000       0.03030000      -0.03420000
C        0.93770000      -0.42930000      -1.21080000
C        1.56570000      -1.74410000      -0.72880000
C        1.91180000      -1.43670000       0.73770000
C        0.76330000      -0.54100000       1.21450000
C        0.89780000       0.22340000       2.51680000
C       -0.04970000      -0.94430000       2.41250000
O       -1.42680000      -0.70490000       2.33750000
H        0.70060000       2.10620000       0.10840000
H       -0.67570000       1.84640000      -0.97500000
H       -0.91750000       1.80990000       0.77340000
H       -0.91990000      -0.48100000      -0.11480000
H        0.37480000      -0.52930000      -2.14390000
H        1.72790000       0.31320000      -1.38720000
H        0.82630000      -2.55270000      -0.77970000
H        2.43330000      -2.05480000      -1.31810000
H        2.03250000      -2.33390000       1.35360000
H        2.86030000      -0.88570000       0.78520000
H        1.81240000       0.10160000       3.09000000
H        0.45290000       1.21100000       2.57900000
H        0.22140000      -1.87260000       2.91810000
H       -1.72410000      -0.39290000       3.19840000
