14
Properties=species:S:1:pos:R:3 gdb_125039=T pbc="F F F"
C        0.00120000       1.54530000       0.02410000
C        0.00150000       0.04450000       0.01030000
C       -1.13890000      -0.70390000       0.04360000
N       -2.40250000      -0.20530000       0.12070000
N       -1.12050000      -2.10170000       0.03490000
N       -0.06140000      -2.74700000      -0.00320000
O        1.15370000      -2.06510000      -0.03610000
C        1.25620000      -0.66000000      -0.03290000
O        2.36490000      -0.19530000      -0.06650000
H        1.02880000       1.90940000       0.02680000
H       -0.50490000       1.95900000      -0.85830000
H       -0.51050000       1.93750000       0.91170000
H       -2.56650000       0.76190000      -0.09900000
H       -3.15710000      -0.85170000      -0.04350000
