19
Properties=species:S:1:pos:R:3 gdb_38684=T pbc="F F F"
C        0.00130000       1.54600000      -0.19880000
C        1.29000000       0.78800000      -0.00920000
C        2.13030000       0.81980000       1.27440000
C        1.45090000       0.06420000       2.44750000
O        0.82440000      -1.10780000       1.92580000
C       -0.38730000      -0.59330000       1.35310000
C       -0.82010000       0.44010000       2.38630000
C        0.27280000       0.84370000       3.02300000
C       -0.03640000       0.04640000      -0.00040000
H       -0.34790000       2.18130000       0.60620000
H       -0.21480000       1.92370000      -1.19310000
H        1.88630000       0.66950000      -0.90860000
H        3.08070000       0.31810000       1.06460000
H        2.37410000       1.84720000       1.57240000
H        2.18990000      -0.24380000       3.19270000
H       -1.07920000      -1.42930000       1.22830000
H       -1.82840000       0.82120000       2.47880000
H        0.36340000       1.62470000       3.76670000
H       -0.27030000      -0.56200000      -0.86780000
