11
Properties=species:S:1:pos:R:3 gdb_906=T pbc="F F F"
N       -0.06920000       1.31320000       0.14410000
C       -0.02540000       0.04860000      -0.02320000
C       -1.23960000      -0.75990000      -0.09430000
C       -1.14800000      -2.07960000      -0.27030000
O        0.05680000      -2.72020000      -0.38930000
C        1.15690000      -1.92470000      -0.31660000
N        1.19550000      -0.66840000      -0.15270000
H        0.88620000       1.67720000       0.16430000
H       -2.20340000      -0.27710000      -0.00310000
H       -1.97350000      -2.77520000      -0.33780000
H        2.05840000      -2.52190000      -0.42110000
