15
Properties=species:S:1:pos:R:3 gdb_34967=T pbc="F F F"
N       -0.22670000      -1.19810000      -0.15370000
C       -0.13710000      -0.04890000      -0.06790000
C       -0.01390000       1.39480000       0.04850000
C       -0.23390000       2.05650000       1.43700000
O        0.46010000       1.35210000       2.47600000
C        1.72950000       1.95240000       2.10300000
C        2.32850000       1.26220000       0.86820000
N        1.37770000       1.99390000      -0.05480000
C        1.01320000       2.91120000       1.12330000
H       -0.63800000       1.87480000      -0.71390000
H       -1.23340000       2.37960000       1.73220000
H        2.33810000       2.20390000       2.97250000
H        3.34570000       1.60190000       0.65070000
H        2.28470000       0.17150000       0.82570000
H        1.09670000       3.99010000       1.02320000
