20
Properties=species:S:1:pos:R:3 gdb_11396=T pbc="F F F"
C       -0.22520000       1.49610000       0.13570000
C       -0.09180000      -0.02750000       0.08010000
C        0.84430000      -0.57900000       1.16220000
O        0.35540000      -0.23400000       2.46350000
C        0.26270000      -1.39060000       3.30240000
C       -1.13170000      -1.47620000       3.92290000
C        0.62560000      -2.53750000       2.39480000
C        0.95500000      -2.08040000       1.19340000
H        0.74340000       1.98340000      -0.02350000
H       -0.91370000       1.86160000      -0.63210000
H       -0.60070000       1.80960000       1.11320000
H       -1.07370000      -0.50000000       0.20170000
H        0.29440000      -0.33850000      -0.89960000
H        1.83920000      -0.11730000       1.02430000
H        1.00100000      -1.29630000       4.11820000
H       -1.89070000      -1.60570000       3.14590000
H       -1.19290000      -2.32010000       4.61850000
H       -1.35260000      -0.55920000       4.47640000
H        0.61350000      -3.57040000       2.72010000
H        1.26580000      -2.66360000       0.33540000
