22
Properties=species:S:1:pos:R:3 gdb_59092=T pbc="F F F"
C       -0.49640000       1.45370000      -0.06280000
C       -0.16210000      -0.03930000       0.06990000
C       -1.44180000      -0.86260000       0.29200000
C        0.58560000      -0.56230000      -1.16090000
C        2.09260000      -0.19040000      -1.44600000
C        2.89320000       0.58980000      -0.41120000
N        2.35860000      -1.63590000      -1.44750000
C        1.08490000      -2.03190000      -1.13540000
O        0.59480000      -3.11300000      -0.93040000
H        0.39650000       2.07190000      -0.19310000
H       -1.15100000       1.62690000      -0.92530000
H       -1.02220000       1.81220000       0.82830000
H        0.47980000      -0.17450000       0.95030000
H       -2.13890000      -0.72510000      -0.54350000
H       -1.21930000      -1.92900000       0.36730000
H       -1.95190000      -0.54010000       1.20550000
H       -0.02970000      -0.39510000      -2.05310000
H        2.23210000       0.25900000      -2.43680000
H        2.73730000       0.19860000       0.59790000
H        3.96340000       0.51930000      -0.63590000
H        2.62740000       1.65070000      -0.42180000
H        3.20790000      -2.16520000      -1.58240000
