23
Properties=species:S:1:pos:R:3 gdb_93165=T pbc="F F F"
C       -0.50990000       1.52360000       0.07820000
C       -0.04970000       0.05230000       0.02690000
C        0.44400000      -0.31350000      -1.39150000
C        0.74710000      -1.78060000      -1.58880000
C        1.84780000      -2.46930000      -1.28160000
C        3.14010000      -2.02680000      -0.64760000
C        3.17790000      -0.63240000       0.01110000
C        2.21720000      -0.48730000       1.16980000
C        0.90870000      -0.22640000       1.16110000
H        0.32520000       2.19880000      -0.13750000
H       -1.30070000       1.71350000      -0.65550000
H       -0.89890000       1.78310000       1.06790000
H       -0.93860000      -0.56680000       0.22250000
H       -0.35250000      -0.03420000      -2.09140000
H        1.29500000       0.31750000      -1.65810000
H       -0.07010000      -2.35110000      -2.02770000
H        1.83360000      -3.53320000      -1.51790000
H        3.41120000      -2.77660000       0.10940000
H        3.94130000      -2.08430000      -1.40010000
H        4.19520000      -0.47320000       0.38600000
H        3.02140000       0.13930000      -0.74440000
H        2.66650000      -0.65780000       2.14720000
H        0.42220000      -0.18080000       2.13620000
