21
Properties=species:S:1:pos:R:3 gdb_79853=T pbc="F F F"
C       -0.12510000       1.60560000       0.00760000
C        0.01540000       0.08830000       0.01850000
C        1.21500000      -0.60190000      -0.68260000
C        2.12890000      -0.20400000       0.51480000
O        3.12530000      -1.17950000       0.73650000
C        2.39670000      -2.39730000       0.54600000
C        0.99720000      -1.87720000       0.22210000
C       -0.07220000      -2.91140000      -0.04660000
C        0.77760000      -0.62900000       1.16360000
H        0.80950000       2.12520000       0.23560000
H       -0.46520000       1.95360000      -0.97420000
H       -0.87020000       1.92850000       0.74330000
H       -0.95110000      -0.36680000      -0.21710000
H        1.47480000      -0.59510000      -1.74380000
H        2.54630000       0.79320000       0.62840000
H        2.83730000      -2.97970000      -0.27430000
H        2.42620000      -3.00500000       1.46040000
H       -0.20010000      -3.57140000       0.81920000
H       -1.04440000      -2.46290000      -0.26630000
H        0.20270000      -3.54120000      -0.90050000
H        0.53390000      -0.65340000       2.22840000
