21
Properties=species:S:1:pos:R:3 gdb_52511=T pbc="F F F"
C        0.01100000       1.47750000       0.00590000
C        0.03430000       0.02460000      -0.00480000
C        0.03630000      -1.18290000      -0.01250000
C       -0.00410000      -2.63630000      -0.02180000
O       -1.06650000      -3.22320000      -0.02380000
C        1.35140000      -3.36340000      -0.02870000
C        1.11020000      -4.87830000      -0.03840000
C        2.13460000      -2.93640000      -1.28890000
C        2.13840000      -2.95320000       1.23460000
H        1.01480000       1.89870000      -0.11050000
H       -0.61600000       1.86230000      -0.80560000
H       -0.40480000       1.84970000       0.94860000
H        0.54070000      -5.18210000      -0.92030000
H        2.06790000      -5.40880000      -0.04330000
H        0.54330000      -5.19380000       0.84100000
H        2.29690000      -1.85530000      -1.31240000
H        3.11280000      -3.42830000      -1.30180000
H        1.60180000      -3.22160000      -2.20180000
H        1.60860000      -3.25080000       2.14530000
H        3.11670000      -3.44500000       1.23790000
H        2.30040000      -1.87250000       1.27220000
