19
Properties=species:S:1:pos:R:3 gdb_77580=T pbc="F F F"
C       -0.07720000       1.54760000       0.07090000
C        0.17380000       0.07940000      -0.02310000
O       -0.75460000      -0.82240000       0.61210000
C        0.65210000      -0.93320000       0.93730000
C        1.27760000      -1.76210000      -0.15830000
C        2.61200000      -2.44370000      -0.16300000
C        1.33950000      -3.25040000      -0.29990000
C        0.75360000      -0.73810000      -1.20880000
O       -0.16540000      -1.18450000      -2.16620000
H        0.82710000       2.11150000      -0.17930000
H       -0.86460000       1.84760000      -0.62950000
H       -0.39450000       1.81990000       1.08100000
H        0.92540000      -0.83620000       1.98210000
H        3.24260000      -2.32160000      -1.03810000
H        3.15860000      -2.50930000       0.77280000
H        1.02660000      -3.86580000       0.53710000
H        1.09700000      -3.65660000      -1.27670000
H        1.55780000      -0.22340000      -1.74260000
H       -0.90620000      -1.54750000      -1.66240000
