20
Properties=species:S:1:pos:R:3 gdb_119108=T pbc="F F F"
C       -0.09250000       1.54820000       1.15010000
O       -0.01680000       0.15690000       1.35940000
C        0.51280000      -0.54390000       0.25650000
C        0.50580000      -2.03790000       0.56130000
C        0.73250000      -2.48430000       1.96720000
N       -0.60980000      -2.57830000       1.37210000
C        0.95630000      -2.84300000      -0.54680000
C        1.35700000      -3.47070000      -1.49350000
C        1.82960000      -4.25230000      -2.62670000
H       -0.73380000       1.79480000       0.29020000
H       -0.52170000       1.99060000       2.05190000
H        0.90190000       1.98650000       0.97540000
H       -0.09100000      -0.35480000      -0.64630000
H        1.54200000      -0.21560000       0.03890000
H        1.22380000      -3.43610000       2.14290000
H        0.91510000      -1.71100000       2.70660000
H       -1.15280000      -1.77950000       1.69710000
H        1.27970000      -5.19630000      -2.70960000
H        1.69660000      -3.70890000      -3.56870000
H        2.89380000      -4.49550000      -2.53100000
