16
Properties=species:S:1:pos:R:3 gdb_29798=T pbc="F F F"
C       -0.04950000       1.46920000       0.00180000
N       -0.00260000       0.02130000       0.00350000
C        0.07350000      -0.75700000      -1.15150000
C        0.10290000      -2.07080000      -0.75770000
O        0.17360000      -3.16210000      -1.53710000
C        0.04310000      -2.09510000       0.67940000
C        0.05290000      -3.30870000       1.44100000
O        0.11370000      -4.42140000       0.92190000
C       -0.02110000      -0.76690000       1.09810000
H        0.85400000       1.88510000      -0.45540000
H       -0.92070000       1.82620000      -0.55630000
H       -0.12000000       1.82680000       1.03020000
H        0.09880000      -0.30390000      -2.12770000
H        0.17400000      -3.92160000      -0.92000000
H        0.00280000      -3.21390000       2.54490000
H       -0.07740000      -0.34600000       2.09000000
