20
Properties=species:S:1:pos:R:3 gdb_98785=T pbc="F F F"
C        0.01450000       1.50250000       0.01100000
C       -0.04670000      -0.02320000       0.00400000
C       -1.48290000      -0.54280000       0.01280000
O       -2.45280000       0.20000000       0.02230000
N       -1.63280000      -1.89810000       0.00930000
C       -0.57250000      -2.90590000      -0.00330000
C       -1.35410000      -4.19260000      -0.00410000
C       -2.66400000      -3.96550000       0.00650000
C       -2.97110000      -2.49520000       0.01610000
H        1.05300000       1.84600000       0.00370000
H       -0.49710000       1.91510000      -0.86160000
H       -0.48190000       1.90650000       0.89630000
H        0.47040000      -0.42910000      -0.87570000
H        0.48460000      -0.43770000       0.87110000
H        0.07420000      -2.81630000      -0.88980000
H        0.08680000      -2.82510000       0.87470000
H       -0.86650000      -5.15900000      -0.01230000
H       -3.44260000      -4.71750000       0.00850000
H       -3.54140000      -2.17830000       0.90010000
H       -3.55410000      -2.16940000      -0.85640000
