16
Properties=species:S:1:pos:R:3 gdb_20797=T pbc="F F F"
C        0.20530000       1.60830000      -0.20220000
C       -0.10000000       0.13060000       0.09810000
C        0.56160000      -0.37170000       1.33600000
C        0.10030000      -0.92290000       2.49820000
N       -1.20650000      -1.27150000       2.87430000
C        1.29070000      -1.16930000       3.24070000
N        2.36720000      -0.79720000       2.59370000
O        1.91650000      -0.30030000       1.38470000
H        1.28130000       1.76360000      -0.31320000
H       -0.28480000       1.92180000      -1.12850000
H       -0.14530000       2.25440000       0.60820000
H       -1.18130000      -0.01680000       0.20040000
H        0.20930000      -0.48530000      -0.75640000
H       -1.91080000      -0.80440000       2.31740000
H       -1.39030000      -1.08520000       3.85230000
H        1.38730000      -1.60550000       4.22560000
