13
Properties=species:S:1:pos:R:3 gdb_21553=T pbc="F F F"
N        0.03810000       1.37090000       0.15110000
C       -0.06820000       0.00750000       0.05260000
C       -1.21410000      -0.71420000       0.03040000
C       -1.14340000      -2.14900000      -0.00330000
N       -2.17840000      -2.91600000      -0.02550000
C        0.24850000      -2.63390000      -0.01440000
N        1.32310000      -1.93710000      -0.00300000
O        1.17170000      -0.54680000       0.02840000
H        0.91250000       1.75820000      -0.17120000
H       -0.77780000       1.89630000      -0.12080000
H       -2.17710000      -0.22070000       0.04660000
H       -1.89400000      -3.89720000      -0.04870000
H        0.43370000      -3.70660000      -0.03770000
