20
Properties=species:S:1:pos:R:3 gdb_55379=T pbc="F F F"
C        1.28770000      -0.82160000       0.06070000
C        0.03360000       0.04050000       0.02280000
O        0.09840000       1.25590000       0.10060000
N       -1.15230000      -0.64590000      -0.09890000
C       -1.25150000      -2.11720000      -0.20730000
C       -2.77150000      -2.41830000      -0.19030000
C       -3.38180000      -1.04330000      -0.25440000
C       -2.45490000      -0.08210000      -0.18460000
C       -2.69100000       1.39380000      -0.19520000
H        2.14560000      -0.15190000       0.10630000
H        1.29810000      -1.47610000       0.93880000
H        1.37230000      -1.46070000      -0.82410000
H       -0.78780000      -2.45690000      -1.14020000
H       -0.72450000      -2.60100000       0.61880000
H       -3.06160000      -3.05520000      -1.03340000
H       -3.06600000      -2.95690000       0.71980000
H       -4.44410000      -0.85670000      -0.32180000
H       -3.76470000       1.57880000      -0.28580000
H       -2.31740000       1.86710000       0.71530000
H       -2.17030000       1.87830000      -1.02450000
