18
Properties=species:S:1:pos:R:3 gdb_52226=T pbc="F F F"
O       -0.29300000       0.74960000      -0.88760000
C       -0.05700000       1.38330000       0.11800000
N        1.16310000       1.48750000       0.71490000
C        2.36360000       0.86340000       0.18050000
C        3.39590000       1.90150000      -0.21580000
C        4.39690000       2.42820000       0.75990000
C        4.87600000       1.56730000      -0.40400000
C        5.42000000       0.21990000      -0.11470000
O        6.28560000      -0.31350000      -0.76310000
H       -0.83050000       1.95300000       0.67010000
H        1.24390000       2.06770000       1.53500000
H        2.77390000       0.16350000       0.91720000
H        2.04010000       0.28310000      -0.68660000
H        3.02100000       2.61260000      -0.94670000
H        4.66500000       3.47810000       0.74550000
H        4.43410000       1.96850000       1.74410000
H        5.37830000       2.06390000      -1.22680000
H        4.98610000      -0.28290000       0.78050000
