11
Properties=species:S:1:pos:R:3 gdb_132317=T pbc="F F F"
N        0.01410000       1.31140000       0.00760000
C       -0.04030000      -0.02270000       0.00110000
N       -1.20410000      -0.64080000       0.00380000
C       -1.07990000      -1.97210000      -0.00380000
F       -2.22710000      -2.60690000      -0.00080000
N       -0.01870000      -2.72200000      -0.01310000
C        1.18530000      -2.10630000      -0.01600000
O        2.28200000      -2.55750000      -0.02400000
O        1.13470000      -0.61970000      -0.00810000
H        0.90200000       1.78250000       0.00540000
H       -0.84670000       1.83130000       0.01470000
