27
Properties=species:S:1:pos:R:3 gdb_101693=T pbc="F F F"
C        0.15620000       1.56000000      -0.08580000
C       -0.02140000       0.04330000       0.03870000
C       -1.47520000      -0.45590000      -0.07620000
C       -2.07690000      -0.16510000      -1.45830000
C       -1.53450000      -1.95640000       0.28120000
C       -2.91660000      -2.59650000       0.34040000
C       -3.90460000      -1.94220000       1.28950000
C       -3.47060000      -3.24750000      -0.90760000
C       -2.96890000      -4.10350000       0.23040000
H        1.20060000       1.84470000       0.07670000
H       -0.13170000       1.92880000      -1.07490000
H       -0.45070000       2.09180000       0.65600000
H        0.58980000      -0.46020000      -0.72390000
H        0.38120000      -0.28010000       1.00740000
H       -2.06540000       0.09370000       0.67170000
H       -3.11290000      -0.50700000      -1.52360000
H       -2.06730000       0.90490000      -1.68500000
H       -1.50930000      -0.67670000      -2.24570000
H       -0.91800000      -2.51310000      -0.43850000
H       -1.05140000      -2.09270000       1.25970000
H       -4.15630000      -0.92220000       0.97880000
H       -4.83930000      -2.50990000       1.33680000
H       -3.49770000      -1.88780000       2.30670000
H       -4.54130000      -3.20130000      -1.07980000
H       -2.87740000      -3.21030000      -1.81490000
H       -2.03560000      -4.63960000       0.09120000
H       -3.69910000      -4.63540000       0.83140000
