23
Properties=species:S:1:pos:R:3 gdb_63943=T pbc="F F F"
C       -0.09620000       1.55290000      -0.03820000
C       -0.00770000       0.01940000      -0.01320000
C       -1.43630000      -0.53880000       0.10840000
C        0.73250000      -0.54970000      -1.28230000
C        1.92210000      -1.30920000      -0.67020000
C        1.30750000      -1.93030000       0.58980000
C        0.89600000      -0.54340000       1.13780000
C        2.27790000       0.12390000       1.09540000
O        2.84910000      -0.34210000      -0.14210000
H        0.86530000       2.02160000      -0.26220000
H       -0.80150000       1.87740000      -0.81120000
H       -0.45460000       1.94830000       0.91960000
H       -2.03720000      -0.24830000      -0.76050000
H       -1.45470000      -1.63060000       0.16990000
H       -1.93470000      -0.14630000       1.00220000
H        0.08680000      -1.21970000      -1.86130000
H        1.08260000       0.24140000      -1.95030000
H        2.46750000      -1.96400000      -1.35120000
H        0.47300000      -2.60340000       0.38630000
H        2.04320000      -2.44370000       1.21420000
H        0.42520000      -0.51860000       2.12280000
H        2.25230000       1.21710000       1.09770000
H        2.90320000      -0.20140000       1.93910000
