19
Properties=species:S:1:pos:R:3 gdb_40056=T pbc="F F F"
C        0.02030000       1.50850000       0.02420000
C        1.32770000       0.72500000       0.01930000
C        0.00960000       0.01920000      -0.04130000
O       -0.42450000      -0.71810000       1.10660000
C       -1.14630000      -1.84050000       0.57250000
C       -2.42760000      -1.29960000      -0.07850000
O       -1.93620000      -0.64310000      -1.26630000
C       -0.50730000      -0.78930000      -1.21910000
C       -0.32700000      -2.21520000      -0.67410000
H       -0.28250000       1.95910000       0.96270000
H       -0.25970000       2.06760000      -0.86240000
H        1.95160000       0.75450000      -0.86830000
H        1.87020000       0.65970000       0.95620000
H       -1.28170000      -2.58120000       1.35930000
H       -3.13550000      -2.09070000      -0.35770000
H       -2.92800000      -0.57660000       0.57420000
H       -0.09270000      -0.53410000      -2.19320000
H        0.70440000      -2.47790000      -0.43440000
H       -0.78940000      -2.97290000      -1.30910000
