19
Properties=species:S:1:pos:R:3 gdb_84130=T pbc="F F F"
C       -0.00360000       1.50600000       0.04090000
C       -0.00200000       0.01210000      -0.02080000
C       -0.06000000      -0.76030000      -1.10920000
C       -0.10750000      -2.23740000      -0.77870000
O        0.70790000      -3.08390000      -1.55720000
C        0.30480000      -2.22290000       0.70710000
C        0.48990000      -3.44290000       1.48800000
O        1.62350000      -2.75100000       0.93550000
C        0.03730000      -0.82640000       1.24650000
H        0.89100000       1.87890000       0.55590000
H       -0.03570000       1.95110000      -0.95690000
H       -0.86600000       1.87860000       0.60880000
H       -0.11630000      -0.40420000      -2.13180000
H       -1.13360000      -2.61880000      -0.88830000
H        1.57050000      -3.08920000      -1.11790000
H        0.42080000      -3.41430000       2.57440000
H        0.27300000      -4.40610000       1.02850000
H        0.82050000      -0.51820000       1.94860000
H       -0.91860000      -0.77530000       1.78670000
