20
Properties=species:S:1:pos:R:3 gdb_100617=T pbc="F F F"
C        0.07600000       1.57430000       0.01750000
C       -0.00860000       0.04530000      -0.02850000
C       -1.44660000      -0.50320000      -0.01930000
C       -2.22330000      -0.13330000      -1.28830000
C       -1.41860000      -2.06010000       0.16900000
C       -0.74770000      -2.47990000       1.40170000
C       -0.20240000      -2.81910000       2.41610000
C       -2.77710000      -2.62820000       0.13350000
N       -3.84790000      -3.05990000       0.09560000
H        1.11950000       1.89820000       0.07370000
H       -0.36400000       2.04110000      -0.86850000
H       -0.44190000       1.97160000       0.89750000
H        0.50660000      -0.32560000      -0.92570000
H        0.53170000      -0.36580000       0.83020000
H       -1.97140000      -0.09300000       0.85250000
H       -1.72360000      -0.52750000      -2.18160000
H       -3.24220000      -0.52830000      -1.26820000
H       -2.29070000       0.95160000      -1.39670000
H       -0.87560000      -2.48480000      -0.68830000
H        0.27840000      -3.12570000       3.31240000
