10
Properties=species:S:1:pos:R:3 gdb_131927=T pbc="F F F"
O        0.06650000       0.04620000       0.00250000
C        0.02450000       1.22520000       0.00940000
O       -1.12810000       1.99640000       0.03030000
C       -0.75140000       3.30620000       0.03170000
C        0.58150000       3.35010000       0.01260000
O        1.09760000       2.08550000      -0.00170000
N        1.46260000       4.47750000       0.00580000
O        0.91090000       5.57330000       0.01980000
O        2.66150000       4.25530000      -0.01270000
H       -1.50840000       4.06950000       0.04670000
