15
Properties=species:S:1:pos:R:3 gdb_42317=T pbc="F F F"
O       -0.20320000       0.96520000      -1.61110000
C       -0.05660000       1.61490000      -0.59930000
C        1.23950000       2.01860000      -0.09600000
C        2.29210000       2.36230000       0.37680000
C       -1.27280000       2.15240000       0.20130000
O       -1.61790000       3.40200000      -0.35650000
C       -2.48710000       3.10090000      -1.45220000
C       -3.13880000       1.75790000      -1.05370000
O       -2.37960000       1.31650000       0.07700000
H        3.23200000       2.66060000       0.77470000
H       -1.02360000       2.29310000       1.25790000
H       -3.19940000       3.92360000      -1.54230000
H       -1.91920000       3.00750000      -2.38460000
H       -4.17990000       1.87110000      -0.73610000
H       -3.07950000       1.02140000      -1.85920000
