17
Properties=species:S:1:pos:R:3 gdb_87446=T pbc="F F F"
O        0.20610000       1.38270000      -0.05230000
C        0.09780000      -0.01180000       0.02180000
C       -0.36680000      -0.72130000       1.28570000
C       -1.21270000      -0.71240000       0.03830000
C       -2.63090000      -0.18720000      -0.19770000
C       -2.67540000      -0.80470000      -1.63460000
O       -3.93460000      -1.50800000      -1.42520000
C       -3.22530000      -1.63610000      -0.15990000
C       -1.81690000      -1.82640000      -0.81500000
H       -0.61190000       1.77060000       0.27450000
H        0.92050000      -0.46370000      -0.52460000
H        0.13920000      -1.63430000       1.58600000
H       -0.68510000      -0.09570000       2.11570000
H       -3.12280000       0.72600000       0.13880000
H       -2.48090000      -0.34260000      -2.60140000
H       -3.69690000      -2.17650000       0.65980000
H       -1.37920000      -2.75620000      -1.17600000
