19
Properties=species:S:1:pos:R:3 gdb_104618=T pbc="F F F"
C        0.48550000       1.54540000       0.13180000
C        0.01680000       0.11400000      -0.00850000
C        0.45600000      -0.69820000      -1.24690000
C        1.06180000      -1.68760000      -0.21660000
C        2.56750000      -1.93720000      -0.28450000
N        3.00230000      -2.59590000       0.93720000
O        0.73440000      -0.79600000       0.87630000
C        0.31090000      -2.95130000      -0.10770000
N       -0.31590000      -3.92130000      -0.07200000
H        1.55590000       1.63030000      -0.07880000
H       -0.06090000       2.19290000      -0.56260000
H        0.30410000       1.90750000       1.14860000
H       -1.06070000       0.04260000       0.18560000
H       -0.33570000      -1.09240000      -1.88220000
H        1.21490000      -0.20710000      -1.85980000
H        2.77890000      -2.58810000      -1.14130000
H        3.04240000      -0.96100000      -0.48300000
H        3.99050000      -2.81690000       0.89430000
H        2.86250000      -1.97120000       1.72500000
