23
Properties=species:S:1:pos:R:3 gdb_114869=T pbc="F F F"
C        0.09670000       1.65950000      -0.35660000
O       -0.23190000       0.29560000      -0.23640000
C        0.55390000      -0.56280000      -1.03600000
C        1.99970000      -0.79100000      -0.53970000
C        2.42820000      -2.08730000      -1.24590000
C        3.04440000      -3.20870000      -0.36560000
C        1.63910000      -3.86440000      -0.24050000
C        1.10310000      -2.91910000      -1.36070000
C       -0.06930000      -1.97210000      -1.04640000
H        1.10860000       1.88220000       0.01300000
H        0.03010000       2.00340000      -1.40140000
H       -0.62400000       2.22090000       0.24370000
H        0.58960000      -0.16700000      -2.06680000
H        2.66890000       0.04950000      -0.74320000
H        1.96290000      -0.92860000       0.54850000
H        2.95540000      -1.87470000      -2.17980000
H        3.74750000      -3.83430000      -0.92200000
H        3.53060000      -2.89200000       0.56140000
H        1.58680000      -4.93690000      -0.44320000
H        1.16050000      -3.68010000       0.72580000
H        0.98190000      -3.43580000      -2.31510000
H       -0.48540000      -2.16310000      -0.05090000
H       -0.89410000      -2.04400000      -1.76010000
