18
Properties=species:S:1:pos:R:3 gdb_37792=T pbc="F F F"
C       -0.04100000       1.61750000       0.06520000
C        1.39530000       2.10970000       0.00960000
C        2.30390000       0.95080000       0.36430000
C        1.43380000      -0.26350000       0.64100000
C        0.06400000       0.07930000       0.02030000
O       -0.05650000      -0.42640000      -1.32320000
C        0.83880000      -0.00990000      -2.25510000
N        1.82180000       0.77850000      -2.19770000
C        2.28540000       1.49180000      -1.05480000
H       -0.50570000       1.93130000       1.00730000
H       -0.67130000       1.98460000      -0.75040000
H        1.61530000       3.12020000       0.33680000
H        3.20110000       1.09760000       0.95600000
H        1.82310000      -1.19700000       0.22360000
H        1.32680000      -0.40600000       1.72280000
H       -0.76090000      -0.40770000       0.54200000
H        0.59530000      -0.49050000      -3.20200000
H        3.15260000       2.09550000      -1.30390000
