14
Properties=species:S:1:pos:R:3 gdb_96700=T pbc="F F F"
C       -0.31060000       1.61400000      -0.11630000
N       -0.48320000       0.18010000      -0.19260000
C        0.25160000      -0.53060000      -0.92010000
O        0.09470000      -1.88770000      -1.01780000
C        0.07470000      -2.63970000       0.16460000
N       -0.43650000      -3.85780000      -0.12810000
O        0.47180000      -2.24810000       1.22330000
C        1.30520000      -0.05890000      -1.80000000
N        2.12690000       0.35930000      -2.49800000
H        0.46790000       2.01790000      -0.77560000
H       -1.26790000       2.08920000      -0.35320000
H       -0.07290000       1.87490000       0.92030000
H       -0.63960000      -4.11200000      -1.07860000
H       -0.37140000      -4.57220000       0.57520000
