19
Properties=species:S:1:pos:R:3 gdb_125943=T pbc="F F F"
C       -0.07120000       1.60030000      -0.06000000
C        0.00690000       0.07320000       0.03160000
C        0.76960000      -0.57640000      -1.17600000
C        1.53840000      -1.83030000      -0.64500000
C        1.61300000      -1.49820000       0.81180000
C        0.78680000      -0.47210000       1.19980000
C        0.97520000      -0.36710000       2.59360000
N        1.86210000      -1.26450000       3.03070000
N        2.23300000      -1.95390000       1.92140000
H        0.93150000       2.04090000      -0.07160000
H       -0.59230000       1.91390000      -0.97110000
H       -0.61220000       2.02070000       0.79390000
H       -1.02150000      -0.31620000       0.05750000
H        0.10230000      -0.82060000      -2.00700000
H        1.49990000       0.14900000      -1.55110000
H        0.97260000      -2.75540000      -0.81810000
H        2.51050000      -1.95650000      -1.13340000
H        0.52560000       0.31130000       3.30430000
H        2.91730000      -2.68440000       2.01630000
