12
Properties=species:S:1:pos:R:3 gdb_133545=T pbc="F F F"
F       -0.44230000       0.18070000      -0.30510000
C       -0.05140000       1.41500000       0.02160000
F        1.26710000       1.39150000       0.22770000
F       -0.29320000       2.22010000      -1.02000000
C       -0.78800000       1.91900000       1.26040000
C       -2.09880000       1.32300000       1.58880000
O       -0.91880000       0.93650000       2.28760000
C       -0.44940000       3.26040000       1.65860000
C       -0.15970000       4.38100000       1.97700000
H       -2.80580000       1.92490000       2.15450000
H       -2.51810000       0.57080000       0.92580000
H        0.09870000       5.37110000       2.26360000
