17
Properties=species:S:1:pos:R:3 gdb_106882=T pbc="F F F"
O        0.14330000       1.18790000       0.39050000
C       -0.00480000      -0.16140000      -0.02190000
C       -1.43890000      -0.59050000       0.00920000
C       -2.21600000      -1.04780000       1.18070000
C       -2.11030000      -1.99370000      -0.01070000
C       -2.91390000      -1.41820000      -1.17110000
O       -2.29350000      -0.11110000      -1.02910000
C       -1.43940000      -3.29500000       0.06200000
O       -0.73110000      -3.65080000       0.97770000
H       -0.32270000       1.73780000      -0.24890000
H        0.40330000      -0.32130000      -1.03040000
H        0.56800000      -0.77450000       0.67970000
H       -1.63240000      -1.38150000       2.03200000
H       -3.17650000      -0.59180000       1.40220000
H       -2.65650000      -1.85950000      -2.14110000
H       -4.00270000      -1.37250000      -1.05880000
H       -1.60670000      -3.95030000      -0.82290000
