21
Properties=species:S:1:pos:R:3 gdb_124541=T pbc="F F F"
C        0.01000000       1.57160000       0.03330000
C        0.04680000       0.03320000       0.00530000
C        0.73740000      -0.48010000      -1.27100000
C        0.70610000      -0.52120000       1.24370000
N        1.97690000      -0.22950000       1.52160000
N        2.23330000      -0.87930000       2.67130000
C        1.16610000      -1.57370000       3.13430000
C        0.13980000      -1.37130000       2.23370000
C       -1.25080000      -1.92700000       2.29700000
H        1.02640000       1.97490000       0.06250000
H       -0.49300000       1.96500000      -0.85660000
H       -0.52100000       1.93980000       0.91670000
H       -0.98820000      -0.33060000      -0.00000000
H        1.78200000      -0.15610000      -1.29340000
H        0.72570000      -1.57360000      -1.31640000
H        0.23660000      -0.09560000      -2.16610000
H        3.14810000      -0.80530000       3.08130000
H        1.21170000      -2.14720000       4.04730000
H       -2.00750000      -1.13500000       2.33570000
H       -1.48380000      -2.54940000       1.42530000
H       -1.38380000      -2.54900000       3.18690000
