18
Properties=species:S:1:pos:R:3 gdb_96831=T pbc="F F F"
C        0.50550000       1.47230000       0.09020000
N        0.44570000       0.01730000       0.12390000
C        0.46410000      -0.62030000      -0.94960000
C        0.42600000      -2.08350000      -1.31810000
C        0.48160000      -1.55730000      -2.78490000
C       -0.77240000      -1.76330000      -3.62340000
O        0.52770000      -0.17280000      -2.26330000
C        1.69790000      -1.87780000      -3.51570000
C        2.69290000      -2.16340000      -4.12550000
H        1.37400000       1.80690000       0.66790000
H        0.56990000       1.89590000      -0.91870000
H       -0.38290000       1.87820000       0.58660000
H        1.29230000      -2.66190000      -0.99690000
H       -0.49250000      -2.60960000      -1.05230000
H       -1.65890000      -1.49870000      -3.04070000
H       -0.73660000      -1.13550000      -4.51720000
H       -0.84940000      -2.80850000      -3.93670000
H        3.57690000      -2.40780000      -4.66180000
