19
Properties=species:S:1:pos:R:3 gdb_112290=T pbc="F F F"
C        0.12820000       1.50480000      -0.04690000
C        0.01280000      -0.02220000      -0.02930000
C       -1.43190000      -0.53030000       0.05000000
C       -2.32850000      -0.16570000      -1.16240000
C       -3.29310000      -1.34580000      -1.33810000
O       -4.39940000      -1.31220000      -1.81120000
C       -2.63210000      -2.55160000      -0.71820000
O       -1.25890000      -2.67230000      -1.14410000
C       -1.52030000      -2.05180000       0.11190000
H        1.17560000       1.81860000      -0.08190000
H       -0.37530000       1.93670000      -0.91800000
H       -0.32220000       1.94660000       0.84920000
H        0.48080000      -0.44590000      -0.92630000
H        0.57350000      -0.41890000       0.82720000
H       -1.89760000      -0.13790000       0.96480000
H       -2.89130000       0.76060000      -1.03900000
H       -1.73130000      -0.07130000      -2.07660000
H       -3.17610000      -3.47480000      -0.54850000
H       -1.17060000      -2.59710000       0.98570000
