18
Properties=species:S:1:pos:R:3 gdb_109626=T pbc="F F F"
C        0.30020000       1.10050000       0.49960000
N       -0.35880000       0.28950000      -0.51130000
C        0.49180000      -0.36200000      -1.44470000
C        1.31420000      -1.61980000      -1.16150000
N        1.17080000      -2.29700000       0.09980000
C        0.02610000      -1.69140000      -2.01180000
O       -1.05650000      -2.29680000      -1.38500000
C        0.12230000      -1.94250000      -3.42780000
N        0.23630000      -2.12410000      -4.56450000
H        1.01720000       0.55940000       1.14280000
H        0.85190000       1.91450000       0.01610000
H       -0.45680000       1.55270000       1.14600000
H       -1.03450000      -0.35980000      -0.12900000
H        0.96800000       0.31140000      -2.15420000
H        2.25720000      -1.71110000      -1.69500000
H        1.74240000      -3.13290000       0.13490000
H        1.42200000      -1.70780000       0.88490000
H       -0.67040000      -2.70720000      -0.58590000
