18
Properties=species:S:1:pos:R:3 gdb_78018=T pbc="F F F"
C       -0.20140000       1.52480000       0.02570000
N        0.10370000       0.09740000       0.10220000
C        1.35380000      -0.48430000      -0.27470000
C        2.60700000       0.28610000       0.17010000
O        2.84130000       1.47050000      -0.55780000
C        2.05880000       0.36190000       1.63460000
C        0.85750000      -0.48220000       1.19060000
C        0.30080000      -1.64400000       1.90820000
O        0.70890000      -2.03970000       2.97420000
H        0.63600000       2.18680000       0.26360000
H       -0.52480000       1.74300000      -0.99590000
H       -1.03650000       1.73190000       0.70120000
H        1.34940000      -1.30020000      -0.99070000
H        3.47710000      -0.38260000       0.12990000
H        3.66460000       1.85970000      -0.24520000
H        2.68430000      -0.16030000       2.35940000
H        1.82240000       1.36040000       2.00890000
H       -0.53280000      -2.14080000       1.36630000
