17
Properties=species:S:1:pos:R:3 gdb_84427=T pbc="F F F"
O       -0.53830000       1.21950000       1.13580000
C       -0.03820000       0.18300000       0.29470000
C        0.70620000      -0.89190000       1.04460000
C       -0.04050000      -1.98460000       1.21410000
C       -1.42560000      -1.83310000       0.61540000
C       -2.45000000      -1.51960000       1.69880000
O       -2.39660000      -0.54640000       2.41470000
C       -1.20910000      -0.61070000      -0.35290000
O       -2.33490000       0.18470000      -0.58860000
H       -1.01300000       0.78040000       1.86330000
H        0.56680000       0.69410000      -0.45940000
H        1.71230000      -0.75410000       1.42310000
H        0.26420000      -2.88040000       1.74360000
H       -1.75660000      -2.72600000       0.07620000
H       -3.28180000      -2.24410000       1.81470000
H       -0.87270000      -1.03180000      -1.30730000
H       -2.22420000       0.95870000      -0.01370000
