18
Properties=species:S:1:pos:R:3 gdb_127666=T pbc="F F F"
C       -0.24350000       1.42260000      -0.02110000
N       -0.02710000      -0.00940000       0.02920000
N       -0.03470000      -0.74320000      -1.11940000
C        0.19120000      -1.96460000      -0.66980000
N        0.34290000      -2.07070000       0.67530000
C        0.19980000      -0.81800000       1.09100000
C        0.27300000      -0.35980000       2.48600000
C       -0.24130000      -1.27580000       3.58280000
C        1.23210000      -1.05850000       3.43400000
H        0.62160000       1.96510000       0.37160000
H       -0.38820000       1.68770000      -1.06740000
H       -1.13340000       1.70610000       0.54870000
H        0.24860000      -2.81060000      -1.33870000
H        0.13060000       0.70480000       2.63130000
H       -0.75660000      -0.81390000       4.41730000
H       -0.64270000      -2.22750000       3.25590000
H        1.81660000      -1.86480000       3.00730000
H        1.74700000      -0.44480000       4.16450000
