19
Properties=species:S:1:pos:R:3 gdb_91308=T pbc="F F F"
O        0.45840000       0.56240000      -1.14050000
C        0.06430000      -0.29050000      -0.10690000
C        0.08600000       0.17010000       1.38420000
C       -1.25150000      -0.59550000       1.61850000
C       -2.49530000       0.31170000       1.67700000
C       -2.54300000       0.34290000       0.10410000
C       -2.31800000       1.63260000      -0.52590000
C       -2.15500000       2.72330000      -1.01150000
C       -1.40630000      -0.74950000       0.06070000
H       -0.13560000       1.32370000      -1.13850000
H        0.68250000      -1.18910000      -0.21150000
H        0.94940000      -0.15420000       1.96900000
H       -0.02110000       1.25330000       1.49920000
H       -1.20510000      -1.45170000       2.29070000
H       -3.37770000      -0.18480000       2.08810000
H       -2.37200000       1.27850000       2.17080000
H       -3.48260000      -0.06520000      -0.27880000
H       -2.02430000       3.68070000      -1.45270000
H       -1.70780000      -1.67050000      -0.43990000
