19
Properties=species:S:1:pos:R:3 gdb_98319=T pbc="F F F"
C        0.04170000       1.56920000      -0.03280000
C        0.05180000       0.02710000      -0.01890000
C       -1.37960000      -0.56010000       0.04110000
C       -2.09850000      -0.17910000       1.24920000
C       -2.67120000       0.13970000       2.25710000
C        0.76310000      -0.46940000      -1.26660000
O        0.19850000      -0.60690000      -2.33280000
C        2.24700000      -0.78970000      -1.16960000
O        2.78490000      -1.11690000      -2.41340000
H        1.05700000       1.97630000      -0.04040000
H       -0.48190000       1.93900000      -0.91980000
H       -0.47230000       1.94260000       0.85600000
H        0.61320000      -0.30880000       0.86120000
H       -1.92650000      -0.23430000      -0.85040000
H       -1.32590000      -1.65380000      -0.02180000
H       -3.19310000       0.41340000       3.14040000
H        2.76900000       0.07160000      -0.72190000
H        2.35440000      -1.61810000      -0.44580000
H        2.02650000      -1.12510000      -3.01980000
