16
Properties=species:S:1:pos:R:3 gdb_49298=T pbc="F F F"
O       -0.94450000       1.23720000       0.16460000
C        0.19280000       0.86750000      -0.02470000
C        1.37150000       1.77360000       0.04900000
C        1.21530000       3.08610000       0.28130000
C        2.37940000       4.02580000       0.33930000
C        3.65920000       3.28070000       0.73030000
N        3.77190000       2.04460000      -0.03330000
C        2.71840000       1.18600000      -0.21710000
O        2.86690000       0.04100000      -0.61230000
H        0.43700000      -0.18210000      -0.26750000
H        0.20480000       3.47140000       0.39870000
H        2.49760000       4.49870000      -0.64710000
H        2.18860000       4.83830000       1.04780000
H        4.53860000       3.89780000       0.52780000
H        3.64270000       3.07730000       1.81210000
H        4.67740000       1.60400000      -0.10950000
