19
Properties=species:S:1:pos:R:3 gdb_62660=T pbc="F F F"
C       -0.15790000       1.58570000      -0.03810000
C       -0.03880000       0.06990000      -0.01180000
O       -1.28970000      -0.55460000      -0.25220000
C        1.18100000      -0.59050000      -0.69810000
C        2.09080000      -0.33810000       0.54180000
O        2.53330000      -1.72280000       0.65760000
C        1.12690000      -1.80800000       0.27340000
C        0.68160000      -0.60320000       1.17530000
C        0.31320000      -0.64190000       2.62860000
H        0.79490000       2.07230000       0.19230000
H       -0.47150000       1.93420000      -1.03030000
H       -0.90500000       1.92400000       0.68670000
H       -1.66260000      -0.18700000      -1.06030000
H        1.48790000      -0.59920000      -1.74430000
H        2.81030000       0.45660000       0.73670000
H        0.67520000      -2.78900000       0.14430000
H        1.03750000      -1.24830000       3.18220000
H        0.30310000       0.36210000       3.06690000
H       -0.68100000      -1.07890000       2.76530000
