19
Properties=species:S:1:pos:R:3 gdb_83925=T pbc="F F F"
C       -0.04200000       1.57110000      -0.06730000
C        0.04820000       0.06600000       0.02400000
C        1.32490000      -0.67800000      -0.17170000
O        2.51410000       0.05240000      -0.13310000
C        2.95150000       0.15520000       1.23290000
C        1.67750000       0.12160000       2.09930000
C        0.69370000      -0.64810000       1.22760000
C        0.03080000      -1.85220000       1.76290000
O        0.16130000      -2.27570000       2.88700000
H        0.92840000       2.04030000       0.10540000
H       -0.37280000       1.86210000      -1.06950000
H       -0.76060000       1.97450000       0.65300000
H       -0.82900000      -0.46280000      -0.34660000
H        1.36400000      -1.58820000      -0.76460000
H        3.60930000      -0.69230000       1.47250000
H        3.52790000       1.07960000       1.32310000
H        1.82520000      -0.41360000       3.03970000
H        1.32210000       1.12880000       2.33410000
H       -0.62630000      -2.37340000       1.02760000
