19
Properties=species:S:1:pos:R:3 gdb_93974=T pbc="F F F"
C       -0.00770000       1.52660000       0.06950000
C        0.02070000       0.00850000      -0.00830000
C        0.73670000      -0.51670000      -1.26370000
C        1.04780000      -1.97600000      -1.12540000
C        0.97390000      -2.60840000       0.05310000
C        0.61050000      -1.86680000       1.31480000
O        0.68170000      -0.46310000       1.15950000
C        1.24440000      -4.04980000       0.14020000
O        1.18300000      -4.69380000       1.16440000
H        1.01180000       1.92140000       0.12150000
H       -0.50060000       1.94900000      -0.81140000
H       -0.54710000       1.85300000       0.96220000
H       -1.01330000      -0.37840000      -0.01630000
H        0.11810000      -0.34370000      -2.15370000
H        1.66760000       0.04580000      -1.42690000
H        1.33850000      -2.53150000      -2.01580000
H       -0.39460000      -2.17570000       1.65010000
H        1.30380000      -2.13420000       2.11760000
H        1.51720000      -4.52710000      -0.82850000
