18
Properties=species:S:1:pos:R:3 gdb_47862=T pbc="F F F"
N       -0.12830000       1.10730000      -0.87570000
C       -0.05650000       0.05680000      -0.15500000
N       -1.21730000      -0.66340000       0.08710000
C       -1.60850000      -1.27150000       1.35240000
C       -0.71130000      -2.42990000       1.77250000
C        0.67520000      -1.97860000       2.21420000
N        1.52330000      -1.47600000       1.13860000
C        1.33860000      -0.45410000       0.25000000
O        2.30360000       0.05690000      -0.29450000
H        0.82480000       1.41490000      -1.08070000
H       -1.98100000      -0.16970000      -0.35890000
H       -1.65650000      -0.53430000       2.17230000
H       -2.62660000      -1.64430000       1.20730000
H       -1.18190000      -2.93830000       2.62160000
H       -0.62730000      -3.15100000       0.95270000
H        0.57540000      -1.23270000       3.01820000
H        1.21140000      -2.82980000       2.64290000
H        2.51350000      -1.63790000       1.26530000
