19
Properties=species:S:1:pos:R:3 gdb_70519=T pbc="F F F"
O        0.03820000       1.41260000      -0.08400000
C        0.05310000       0.00390000      -0.08920000
C       -0.70740000      -0.67510000      -1.22470000
C       -1.30350000      -0.60310000       0.15750000
C       -1.49020000      -1.81680000       1.06480000
C       -0.62730000      -3.01850000       0.77960000
C        0.70980000      -3.01720000       0.68190000
C        1.59220000      -1.85790000       0.75230000
C        1.30530000      -0.58050000       0.44950000
H        0.60950000       1.71520000      -0.79850000
H       -1.11800000      -0.02230000      -1.98730000
H       -0.33230000      -1.62870000      -1.57740000
H       -2.07440000       0.15380000       0.27760000
H       -1.31580000      -1.48470000       2.09940000
H       -2.54210000      -2.11960000       1.01850000
H       -1.14370000      -3.97050000       0.68910000
H        1.21070000      -3.97520000       0.55520000
H        2.61490000      -2.07030000       1.05630000
H        2.09340000       0.15880000       0.57360000
