19
Properties=species:S:1:pos:R:3 gdb_41732=T pbc="F F F"
C        0.00660000       1.33200000      -0.11010000
C        1.43900000       1.89100000       0.05270000
C        2.09070000       0.84290000       0.92500000
C        3.56810000       0.67240000       1.18740000
O        3.65340000      -0.32250000       2.20370000
C        2.50260000      -0.22010000       3.04330000
C        1.37910000       0.29880000       2.16290000
C        1.22440000      -0.38110000       0.82570000
O        0.08530000      -0.08600000       0.06040000
H       -0.65930000       1.76470000       0.64940000
H       -0.43100000       1.52820000      -1.09260000
H        1.95640000       1.94290000      -0.91250000
H        1.43160000       2.89690000       0.48400000
H        4.13810000       0.30630000       0.32600000
H        4.01620000       1.62480000       1.51810000
H        2.32590000      -1.21640000       3.46260000
H        2.67870000       0.47890000       3.87700000
H        0.53670000       0.80170000       2.62480000
H        1.59870000      -1.38460000       0.65230000
