25
Properties=species:S:1:pos:R:3 gdb_81335=T pbc="F F F"
C       -0.15370000       1.54730000      -0.01100000
C        0.01540000       0.03150000      -0.01070000
C        1.13830000      -0.58480000      -0.90340000
C        2.12020000      -0.25190000       0.25260000
C        0.88170000      -0.60820000       1.12990000
C        0.71010000      -2.13440000       0.87280000
C        1.77600000      -2.98370000       1.58300000
C       -0.66680000      -2.66640000       1.29960000
C        0.90300000      -2.09640000      -0.69470000
H        0.78350000       2.09200000       0.13100000
H       -0.58840000       1.88360000      -0.95920000
H       -0.83650000       1.85680000       0.78840000
H       -0.97200000      -0.41790000      -0.15530000
H        1.31140000      -0.24280000      -1.92590000
H        3.02550000      -0.85510000       0.34840000
H        2.39160000       0.80230000       0.30120000
H        0.79550000      -0.27600000       2.16740000
H        1.66880000      -2.91310000       2.67190000
H        1.66840000      -4.03980000       1.31060000
H        2.79560000      -2.68450000       1.32940000
H       -1.49550000      -2.12210000       0.84050000
H       -0.77450000      -3.72070000       1.02040000
H       -0.78780000      -2.60190000       2.38750000
H        0.01720000      -2.45530000      -1.22880000
H        1.75660000      -2.69950000      -1.02080000
