15
Properties=species:S:1:pos:R:3 gdb_4974=T pbc="F F F"
C       -0.04870000       1.51660000      -0.03140000
C       -0.01450000       0.01360000      -0.01350000
N       -0.00920000      -0.63420000      -1.17050000
C        0.00720000      -1.97470000      -1.14010000
C        0.02270000      -2.66530000       0.06010000
N        0.02730000      -2.03880000       1.24060000
C        0.00420000      -0.70700000       1.21120000
N       -0.05370000      -0.05430000       2.42620000
H        0.85460000       1.95010000       0.41980000
H       -0.11410000       1.86490000      -1.06290000
H       -0.90710000       1.90240000       0.53180000
H        0.00840000      -2.49290000      -2.09400000
H        0.03650000      -3.75200000       0.08400000
H        0.17650000      -0.64330000       3.21330000
H        0.33350000       0.87450000       2.47240000
