16
Properties=species:S:1:pos:R:3 gdb_19235=T pbc="F F F"
C       -0.11980000       1.57650000      -0.13140000
C        0.02030000       0.06630000      -0.04260000
C        0.69100000      -0.67440000      -1.21100000
N        2.08120000      -0.17160000      -1.28200000
C        1.74160000      -1.24630000      -0.32940000
C        1.13940000      -0.55890000       0.90870000
C        1.99820000       0.34200000       1.66160000
N        2.66810000       1.05800000       2.27420000
H        0.82670000       2.03380000      -0.42740000
H       -0.88160000       1.84310000      -0.87190000
H       -0.42200000       2.00150000       0.83060000
H       -0.93500000      -0.40200000       0.20960000
H        0.20770000      -1.10420000      -2.07940000
H        2.53090000      -0.60730000      -2.08580000
H        2.24390000      -2.20460000      -0.35040000
H        0.69330000      -1.28190000       1.59580000
