15
Properties=species:S:1:pos:R:3 gdb_20565=T pbc="F F F"
C        0.11390000       1.43330000       0.86800000
C       -0.13280000       0.30840000      -0.13510000
O        0.86080000      -0.71510000      -0.06110000
C       -1.50500000      -0.29340000      -0.00220000
C       -2.73150000       0.14320000       0.44760000
N       -3.64270000      -0.86080000       0.30170000
N       -3.05070000      -1.90130000      -0.21110000
N       -1.76320000      -1.56230000      -0.40200000
H        1.12290000       1.83080000       0.73510000
H       -0.60260000       2.24790000       0.72670000
H        0.00890000       1.06800000       1.89560000
H       -0.01880000       0.70940000      -1.15030000
H        0.90150000      -1.01640000       0.85460000
H       -3.01050000       1.10040000       0.85690000
H       -1.10100000      -2.22810000      -0.76930000
