20
Properties=species:S:1:pos:R:3 gdb_71305=T pbc="F F F"
O       -0.04750000       1.34640000       0.03460000
C        0.03800000      -0.06010000      -0.01820000
C        0.25750000      -0.65510000      -1.45850000
C       -1.09650000      -1.37650000      -1.33180000
C       -1.38540000      -0.66680000      -0.03400000
N       -1.30900000      -2.10310000      -0.09190000
C       -0.30850000      -2.83630000       0.68590000
C        1.06260000      -2.16380000       0.90770000
C        0.93160000      -0.64260000       1.07650000
H        0.84730000       1.70260000       0.00300000
H        0.18050000       0.16090000      -2.18150000
H        1.14940000      -1.24850000      -1.67650000
H       -1.76600000      -1.59750000      -2.15630000
H       -2.27620000      -0.16580000       0.33050000
H       -0.77980000      -3.01280000       1.66110000
H       -0.17630000      -3.81910000       0.22120000
H        1.53580000      -2.60820000       1.79010000
H        1.72670000      -2.37860000       0.06500000
H        1.92550000      -0.17550000       1.03540000
H        0.49960000      -0.38720000       2.05250000
