20
Properties=species:S:1:pos:R:3 gdb_91539=T pbc="F F F"
C       -0.11390000       1.54200000       0.06820000
C        0.02560000       0.03070000      -0.03880000
C        1.19540000      -0.56250000      -0.91220000
C        1.71000000      -1.27360000       0.34180000
O        1.97790000      -0.25300000       1.32020000
C        0.62570000      -0.71840000       1.17610000
C       -0.06870000      -1.19830000       2.39440000
C        0.70720000      -1.70990000       3.54980000
N        0.01930000      -0.41070000       3.64420000
H        0.82850000       1.98790000       0.39870000
H       -0.37870000       1.98230000      -0.89890000
H       -0.89450000       1.81800000       0.78540000
H       -0.92480000      -0.43010000      -0.32810000
H        0.84450000      -1.24350000      -1.69090000
H        1.89150000       0.16090000      -1.34460000
H        2.26930000      -2.19750000       0.43680000
H       -1.06150000      -1.60270000       2.20970000
H        0.28780000      -2.49690000       4.16970000
H        1.78880000      -1.71100000       3.45980000
H        0.71000000       0.32570000       3.50930000
