18
Properties=species:S:1:pos:R:3 gdb_32824=T pbc="F F F"
N       -0.37620000       1.38520000      -0.25190000
C       -0.27320000       0.01690000      -0.07880000
C       -1.18300000      -1.00930000      -0.10390000
C       -2.68380000      -0.93960000      -0.17910000
C       -3.26430000      -0.26550000      -1.42320000
O       -3.10010000       1.14980000      -1.29270000
C       -0.39400000      -2.20800000       0.02990000
C        0.89910000      -1.82720000       0.14510000
O        0.98950000      -0.46090000       0.06770000
H        0.09880000       1.92820000       0.45810000
H       -1.33980000       1.66670000      -0.39420000
H       -3.07940000      -1.96040000      -0.13940000
H       -3.10380000      -0.41730000       0.69230000
H       -2.75590000      -0.63670000      -2.32310000
H       -4.33470000      -0.50600000      -1.50870000
H       -3.22250000       1.55310000      -2.15690000
H       -0.76940000      -3.22050000       0.05660000
H        1.83050000      -2.34800000       0.28550000
