16
Properties=species:S:1:pos:R:3 gdb_84612=T pbc="F F F"
O        0.06270000       1.39370000      -0.09050000
C        0.08300000      -0.01760000      -0.04000000
C        0.70000000      -0.55340000       1.24520000
C       -0.15220000      -1.28740000       1.96030000
C       -1.47910000      -1.37060000       1.27700000
N       -2.12090000      -0.03720000       1.11390000
C       -1.33860000      -0.63060000      -0.01120000
C       -1.99880000      -1.01350000      -1.21790000
C       -2.54340000      -1.31850000      -2.24660000
H       -0.57190000       1.66180000       0.58930000
H        0.62740000      -0.34500000      -0.93150000
H        1.70470000      -0.27300000       1.53860000
H        0.04250000      -1.73970000       2.92540000
H       -2.11530000      -2.24430000       1.36060000
H       -3.11090000      -0.16280000       0.90590000
H       -3.02240000      -1.59020000      -3.15440000
