18
Properties=species:S:1:pos:R:3 gdb_62202=T pbc="F F F"
O       -0.08440000       1.43050000       0.01090000
C        0.01960000       0.00900000       0.03070000
C        0.67130000      -0.53620000      -1.25670000
C       -0.08820000      -0.10480000      -2.51320000
C        0.60690000      -0.59530000      -3.79810000
C       -0.10710000      -0.19980000      -5.01040000
N       -0.68370000       0.11890000      -5.95980000
C        0.72900000      -0.46500000       1.22140000
C        1.35460000      -0.82690000       2.18210000
H        0.78120000       1.78920000       0.23700000
H       -1.01900000      -0.34390000       0.07010000
H        1.70940000      -0.18050000      -1.29670000
H        0.71730000      -1.62980000      -1.18860000
H       -1.11080000      -0.49860000      -2.48670000
H       -0.17230000       0.98490000      -2.53130000
H        1.62780000      -0.19890000      -3.85290000
H        0.69690000      -1.68810000      -3.79140000
H        1.88690000      -1.15140000       3.04230000
