25
Properties=species:S:1:pos:R:3 gdb_103175=T pbc="F F F"
C        0.47780000       1.27730000      -0.06800000
C        0.22220000      -0.23410000       0.00640000
C       -1.24970000      -0.66050000       0.12120000
C       -1.96140000       0.03430000       1.28050000
C       -2.05480000      -0.70120000      -1.22180000
C       -1.59940000      -0.01410000      -2.49390000
O       -1.90930000      -2.13630000      -1.30310000
C       -1.45500000      -2.21090000       0.06520000
C       -0.31530000      -3.19340000       0.24630000
H        1.54550000       1.47470000      -0.20630000
H       -0.05330000       1.74210000      -0.90380000
H        0.16800000       1.78820000       0.84820000
H        0.67140000      -0.71540000      -0.86890000
H        0.76040000      -0.63640000       0.87480000
H       -2.04140000       1.11410000       1.11980000
H       -2.97680000      -0.35510000       1.40600000
H       -1.42560000      -0.11960000       2.22490000
H       -3.11010000      -0.44130000      -1.03600000
H       -0.53980000      -0.18630000      -2.69860000
H       -2.17250000      -0.41370000      -3.33720000
H       -1.78200000       1.06420000      -2.44590000
H       -2.28880000      -2.50830000       0.72200000
H        0.54370000      -2.94580000      -0.38160000
H        0.00860000      -3.22360000       1.29230000
H       -0.65590000      -4.19710000      -0.02830000
