19
Properties=species:S:1:pos:R:3 gdb_103454=T pbc="F F F"
O       -0.14820000       1.46470000       0.18890000
C        0.03800000       0.06820000      -0.06810000
C       -1.33060000      -0.55390000       0.02010000
O       -2.24660000       0.08480000      -0.82620000
C       -1.59680000      -2.02010000       0.15100000
C       -0.49650000      -2.97510000       0.62200000
C       -0.19500000      -2.50550000       2.03180000
C       -0.99040000      -1.49890000       2.40750000
C       -1.92570000      -1.09100000       1.32660000
H        0.62400000       1.93780000      -0.13240000
H        0.43630000      -0.08800000      -1.08140000
H        0.72850000      -0.37770000       0.65580000
H       -2.10070000       1.02960000      -0.68430000
H       -2.38920000      -2.39630000      -0.48530000
H       -0.84510000      -4.01660000       0.60990000
H        0.39280000      -2.94790000      -0.02210000
H        0.59350000      -2.94230000       2.63420000
H       -0.95930000      -1.00420000       3.37180000
H       -2.94090000      -0.78120000       1.54660000
