20
Properties=species:S:1:pos:R:3 gdb_86352=T pbc="F F F"
C       -0.30030000       1.56830000      -0.05080000
C       -0.05840000       0.06100000      -0.02800000
C        1.14310000      -0.40420000      -0.90770000
C        2.01920000      -0.51590000       0.37180000
O        2.76260000       0.65710000       0.65590000
C        0.71510000      -0.50420000       1.21140000
C        0.70960000       0.26460000       2.53780000
C        1.46210000      -0.43530000       3.57750000
N        2.05390000      -1.01060000       4.38660000
H        0.62880000       2.12130000       0.11150000
H       -0.70470000       1.87000000      -1.02310000
H       -1.02270000       1.87530000       0.71380000
H       -0.99820000      -0.46200000      -0.22800000
H        0.97390000      -1.37530000      -1.38070000
H        1.49930000       0.30250000      -1.66260000
H        2.64950000      -1.40850000       0.46620000
H        3.50800000       0.69670000       0.04860000
H        0.40170000      -1.53610000       1.39370000
H        1.14810000       1.25650000       2.40270000
H       -0.31970000       0.40220000       2.88900000
