15
Properties=species:S:1:pos:R:3 gdb_42868=T pbc="F F F"
N       -0.06600000       1.22600000       0.33930000
C       -0.01760000      -0.00080000       0.03030000
N       -1.15450000      -0.78430000      -0.07380000
C       -1.04610000      -2.08640000      -0.72160000
C       -0.00500000      -2.00500000      -1.88550000
C        1.08430000      -1.98730000      -0.77800000
O        1.16340000      -0.67280000      -0.19220000
C        0.07830000      -2.83760000       0.04370000
O        0.14550000      -3.76620000       0.78660000
H        0.87240000       1.61540000       0.38810000
H       -2.01000000      -0.26020000      -0.16820000
H       -2.02550000      -2.54090000      -0.85760000
H        0.03650000      -2.92380000      -2.47520000
H       -0.05350000      -1.12530000      -2.52930000
H        2.10540000      -2.31660000      -0.96050000
