20
Properties=species:S:1:pos:R:3 gdb_120105=T pbc="F F F"
O        0.24520000       1.43220000      -0.32200000
C        0.05790000       0.02750000      -0.26560000
C       -1.32390000      -0.37000000       0.26260000
C       -1.48820000      -1.88980000       0.26130000
C       -2.06350000      -2.81540000       1.30860000
C       -3.43090000      -2.37510000       1.90380000
N       -3.81790000      -1.05660000       1.33640000
C       -4.02640000      -2.30570000       0.55810000
C       -2.68380000      -2.74370000      -0.09130000
H        0.09860000       1.77890000       0.56410000
H        0.18570000      -0.32800000      -1.29500000
H        0.84380000      -0.45660000       0.33980000
H       -1.45290000       0.02670000       1.27440000
H       -2.09080000       0.10810000      -0.35070000
H       -0.60430000      -2.37860000      -0.15530000
H       -1.48950000      -3.62590000       1.74100000
H       -3.84620000      -2.72790000       2.83870000
H       -4.72010000      -0.81510000       1.74730000
H       -5.01000000      -2.59140000       0.20940000
H       -2.64760000      -3.49130000      -0.87420000
