21
Properties=species:S:1:pos:R:3 gdb_53661=T pbc="F F F"
C       -0.02400000       1.49280000       0.02820000
C       -0.03680000       0.04130000      -0.08990000
C       -0.03690000      -1.15830000      -0.19530000
C       -0.06910000      -2.61200000      -0.30520000
C       -1.32330000      -3.23080000       0.35260000
C       -1.39250000      -4.73800000       0.18020000
C       -0.36540000      -5.56800000       0.92120000
C       -2.67170000      -5.35620000      -0.20170000
O       -1.64120000      -5.16080000      -1.17300000
H        0.86430000       1.84250000       0.56620000
H       -0.02380000       1.97360000      -0.95650000
H       -0.90290000       1.85670000       0.57210000
H       -0.05170000      -2.91150000      -1.36040000
H        0.83780000      -3.03190000       0.14810000
H       -1.33920000      -2.98000000       1.41960000
H       -2.21040000      -2.77610000      -0.09770000
H       -0.45620000      -5.42170000       2.00300000
H       -0.50090000      -6.62930000       0.70000000
H        0.65330000      -5.29240000       0.63050000
H       -2.87090000      -6.39390000       0.06480000
H       -3.55810000      -4.73500000      -0.32710000
