23
Properties=species:S:1:pos:R:3 gdb_118587=T pbc="F F F"
C       -1.02160000       0.64500000      -0.51760000
O       -0.61320000      -0.67880000      -0.27110000
C        0.19870000      -0.80150000       0.87840000
C        0.60920000      -2.26540000       1.04240000
C        1.48850000      -2.70670000      -0.14010000
O        1.80950000      -4.09090000      -0.10690000
C        1.31900000      -2.51920000       2.38270000
C        0.38730000      -2.58500000       3.59480000
O        1.08840000      -2.78920000       4.81110000
H       -0.16280000       1.31360000      -0.68780000
H       -1.64420000       0.63480000      -1.41550000
H       -1.61100000       1.05290000       0.31900000
H        1.09850000      -0.16690000       0.78250000
H       -0.34820000      -0.44630000       1.76700000
H       -0.31450000      -2.86320000       1.00670000
H        0.99900000      -2.42980000      -1.08170000
H        2.45000000      -2.18050000      -0.09770000
H        1.00360000      -4.58150000      -0.29750000
H        1.85240000      -3.47420000       2.29840000
H        2.07880000      -1.74700000       2.56150000
H       -0.15310000      -1.64190000       3.72890000
H       -0.37230000      -3.36850000       3.43410000
H        1.58270000      -3.61110000       4.72730000
