21
Properties=species:S:1:pos:R:3 gdb_73084=T pbc="F F F"
C        0.02100000       1.51440000      -0.05690000
C       -0.01320000      -0.00230000       0.04830000
C       -1.32050000      -0.69200000       0.51400000
C       -0.47710000      -1.67420000       1.37080000
C        0.73220000      -0.68980000       1.23240000
C        2.09950000      -1.19820000       0.91510000
C        2.57480000      -1.14660000      -0.32740000
C        1.74070000      -0.63790000      -1.47100000
O        0.35260000      -0.61510000      -1.18970000
H        1.03650000       1.88010000      -0.24500000
H       -0.61990000       1.85030000      -0.87860000
H       -0.33160000       1.97720000       0.87000000
H       -1.93410000      -0.02500000       1.12580000
H       -1.93040000      -1.11230000      -0.28770000
H       -0.82850000      -1.88780000       2.38230000
H       -0.28670000      -2.61520000       0.85140000
H        0.76490000      -0.01950000       2.09920000
H        2.70390000      -1.59850000       1.72580000
H        3.58320000      -1.47450000      -0.56540000
H        2.09990000       0.35680000      -1.79110000
H        1.85120000      -1.29700000      -2.34040000
