23
Properties=species:S:1:pos:R:3 gdb_123059=T pbc="F F F"
O       -0.07120000       1.43230000      -0.16330000
C        0.01140000       0.01540000      -0.10490000
C       -1.40310000      -0.53570000       0.01330000
C       -1.44330000      -2.06450000       0.08420000
C       -2.86590000      -2.62360000       0.19970000
C       -2.89760000      -4.14100000       0.22070000
C       -4.25880000      -4.85260000       0.04740000
C       -3.59560000      -5.51340000      -1.17680000
O       -2.40010000      -4.72400000      -1.01280000
H        0.82090000       1.78160000      -0.24470000
H        0.49430000      -0.39340000      -1.00780000
H        0.61190000      -0.31270000       0.75990000
H       -1.87130000      -0.10110000       0.90550000
H       -1.98520000      -0.18200000      -0.84670000
H       -0.97370000      -2.49440000      -0.80880000
H       -0.84900000      -2.40970000       0.94180000
H       -3.34630000      -2.25260000       1.11600000
H       -3.47310000      -2.27050000      -0.64400000
H       -2.31570000      -4.51650000       1.07640000
H       -4.56190000      -5.52130000       0.85420000
H       -5.08410000      -4.17770000      -0.19020000
H       -3.39300000      -6.58720000      -1.07080000
H       -4.07250000      -5.34000000      -2.14860000
