21
Properties=species:S:1:pos:R:3 gdb_100788=T pbc="F F F"
C       -0.06400000       1.58340000      -0.04780000
C       -0.02940000       0.05350000      -0.04640000
C        0.74430000      -0.53120000      -1.22820000
O        2.11220000      -0.12020000      -1.23480000
C        0.66190000      -2.07450000      -1.27800000
O       -0.67620000      -2.53130000      -1.26000000
C        1.38460000      -2.61000000      -2.50580000
C        1.10360000      -3.94680000      -3.03320000
O        0.52830000      -2.78140000      -3.64910000
H        0.94770000       1.99840000      -0.06690000
H       -0.59240000       1.96260000      -0.92940000
H       -0.57640000       1.96790000       0.83900000
H        0.43240000      -0.31250000       0.88430000
H       -1.04160000      -0.36100000      -0.06410000
H        0.32900000      -0.13790000      -2.16600000
H        2.47190000      -0.29650000      -0.35770000
H        1.15010000      -2.47070000      -0.37470000
H       -0.95620000      -2.53200000      -2.18780000
H        2.33990000      -2.13860000      -2.72250000
H        1.85300000      -4.45910000      -3.63320000
H        0.39380000      -4.58450000      -2.51140000
