17
Properties=species:S:1:pos:R:3 gdb_128342=T pbc="F F F"
C       -0.05340000       1.43910000      -0.07520000
N       -0.01170000       0.01750000       0.22830000
C       -1.17790000      -0.71030000       0.10560000
N       -2.39730000      -0.18440000       0.07340000
N       -3.20050000      -1.25930000       0.05130000
N       -2.59010000      -2.44800000       0.00020000
C       -1.30970000      -2.12350000       0.05440000
O       -0.27720000      -2.98440000       0.05660000
C       -0.62860000      -4.36200000      -0.03600000
H        0.94140000       1.86260000       0.08060000
H       -0.37950000       1.65700000      -1.10340000
H       -0.75160000       1.93400000       0.60460000
H        0.78860000      -0.47270000      -0.14340000
H       -4.18590000      -1.17070000      -0.12040000
H       -1.25380000      -4.66240000       0.81150000
H       -1.17630000      -4.56440000      -0.96290000
H        0.31110000      -4.91570000      -0.02530000
