15
Properties=species:S:1:pos:R:3 gdb_129678=T pbc="F F F"
N       -0.11470000       1.41860000       0.00830000
C       -0.04730000       0.01210000      -0.01320000
C       -1.09700000      -0.88840000       0.00290000
N       -2.43960000      -0.50950000       0.04480000
C       -3.50940000      -1.35400000       0.06200000
O       -3.45030000      -2.56460000       0.04330000
C       -0.49830000      -2.16920000      -0.03110000
N        0.82970000      -2.07340000      -0.06610000
N        1.08380000      -0.75470000      -0.05470000
H        0.32590000       1.82760000       0.82560000
H        0.28070000       1.85050000      -0.82040000
H       -2.60740000       0.48660000       0.06330000
H       -4.46270000      -0.79170000       0.09580000
H       -0.98980000      -3.12660000      -0.03100000
H        2.03780000      -0.43550000      -0.07630000
