15
Properties=species:S:1:pos:R:3 gdb_81259=T pbc="F F F"
C       -0.10310000       1.52900000      -0.00330000
C       -0.03450000       0.00770000       0.00170000
C        1.18380000      -0.60480000      -0.74400000
O        2.00540000      -0.39410000       0.46190000
C        0.74430000      -0.61820000       1.19220000
C        0.63740000      -2.12590000       0.94560000
O        0.37150000      -3.03950000       1.66870000
C        0.98540000      -2.11530000      -0.58760000
O        1.06040000      -3.01850000      -1.36660000
H        0.87390000       1.96380000       0.22140000
H       -0.42880000       1.89470000      -0.98210000
H       -0.82040000       1.88270000       0.74370000
H       -1.00850000      -0.44180000      -0.22250000
H        1.60420000      -0.21130000      -1.66760000
H        0.72370000      -0.23810000       2.21180000
