23
Properties=species:S:1:pos:R:3 gdb_86998=T pbc="F F F"
C       -0.02850000       1.60620000      -0.00610000
C        0.04840000       0.08770000       0.00430000
C        1.06830000      -0.62740000      -0.92630000
C        1.34140000      -1.64790000       0.21330000
C        2.76730000      -2.13550000       0.43580000
C        2.90710000      -3.02570000       1.68530000
C        4.34570000      -3.39860000       1.95250000
O        4.76940000      -4.52260000       2.03400000
C        0.72110000      -0.62760000       1.21060000
H        0.96080000       2.05060000       0.15290000
H       -0.41120000       1.97980000      -0.96260000
H       -0.69090000       1.97730000       0.78410000
H       -0.95000000      -0.33500000      -0.15730000
H        0.71220000      -1.01100000      -1.88590000
H        1.94570000       0.00460000      -1.10870000
H        0.67300000      -2.51060000       0.10570000
H        3.10790000      -2.69300000      -0.44650000
H        3.43500000      -1.26780000       0.53030000
H        2.54110000      -2.46900000       2.56050000
H        2.31800000      -3.94320000       1.59460000
H        5.02840000      -2.52210000       2.06610000
H        1.49540000       0.00660000       1.66020000
H        0.07660000      -1.00590000       2.00820000
