23
Properties=species:S:1:pos:R:3 gdb_102462=T pbc="F F F"
C        0.06830000       1.36970000       0.34130000
C        0.11940000      -0.13800000       0.07870000
C        0.64350000      -0.52030000      -1.33110000
C        2.13960000      -0.21310000      -1.51960000
C        2.63560000      -0.44030000      -2.95120000
C        0.36530000      -2.00180000      -1.52970000
O        1.05910000      -2.87260000      -1.04330000
C       -0.85310000      -2.40610000      -2.34620000
O       -1.04030000      -3.78780000      -2.34210000
H        1.06050000       1.82830000       0.30450000
H       -0.56340000       1.87900000      -0.39490000
H       -0.34920000       1.57100000       1.33260000
H        0.74940000      -0.63530000       0.82520000
H       -0.88890000      -0.55120000       0.20820000
H        0.05790000       0.04000000      -2.07410000
H        2.32880000       0.82610000      -1.23250000
H        2.70480000      -0.84570000      -0.82680000
H        2.51850000      -1.48580000      -3.25440000
H        2.08750000       0.18200000      -3.66760000
H        3.69700000      -0.19060000      -3.04070000
H       -1.73660000      -1.87980000      -1.94820000
H       -0.70400000      -2.01580000      -3.36920000
H       -0.28020000      -4.13750000      -1.84820000
