17
Properties=species:S:1:pos:R:3 gdb_96951=T pbc="F F F"
C       -0.01580000       1.45420000       0.07770000
N       -0.09450000       0.00120000       0.07980000
C        0.51600000      -0.65100000       0.96080000
O        1.30050000      -0.13910000       1.99160000
C        1.73090000      -1.31400000       2.66650000
C        2.06130000      -2.43580000       1.64660000
N        1.61710000      -3.44650000       2.67150000
C        0.58150000      -2.35420000       2.73240000
C        0.59100000      -2.13080000       1.17430000
H        0.59810000       1.87540000       0.88140000
H        0.38650000       1.78580000      -0.88610000
H       -1.02920000       1.86400000       0.15430000
H        2.36770000      -1.09150000       3.51760000
H        2.95370000      -2.56210000       1.03310000
H        1.21950000      -4.25720000       2.19060000
H       -0.27720000      -2.38400000       3.40370000
H        0.05870000      -2.79570000       0.49870000
