19
Properties=species:S:1:pos:R:3 gdb_13004=T pbc="F F F"
C       -0.05530000       1.49490000       0.02800000
C       -0.04970000      -0.00050000      -0.01720000
C        0.01510000      -0.78200000      -1.09970000
C        0.02750000      -2.25880000      -0.76540000
C        0.02530000      -2.25620000       0.75820000
N        1.21730000      -1.61010000       1.35880000
C       -0.06260000      -0.84790000       1.23090000
C       -0.79630000      -0.40180000       2.46880000
H        0.81710000       1.87680000       0.57370000
H       -0.03980000       1.92350000      -0.97770000
H       -0.94210000       1.88220000       0.54540000
H        0.09520000      -0.41710000      -2.11850000
H       -0.85200000      -2.78020000      -1.16700000
H        0.91230000      -2.76610000      -1.16940000
H       -0.44820000      -3.06750000       1.30210000
H        1.29700000      -1.94020000       2.32090000
H       -0.32480000       0.47950000       2.91920000
H       -1.83640000      -0.14200000       2.24250000
H       -0.80720000      -1.19580000       3.22280000
