17
Properties=species:S:1:pos:R:3 gdb_63903=T pbc="F F F"
C        0.58410000       1.39600000      -0.07390000
C       -0.06100000       0.00410000      -0.03400000
O       -1.47170000       0.10820000       0.03480000
C        0.34320000      -0.90020000      -1.22580000
C        1.43720000      -1.80900000      -0.68920000
O        2.49060000      -1.09990000      -0.04400000
C        1.50480000      -1.74060000       0.78870000
C        0.42400000      -0.79070000       1.20690000
O       -0.11010000      -0.71980000       2.28610000
H        1.66950000       1.32760000      -0.17580000
H        0.17560000       1.95310000      -0.92230000
H        0.34870000       1.94490000       0.84340000
H       -1.68660000       0.19960000       0.97440000
H       -0.52600000      -1.49400000      -1.52280000
H        0.68420000      -0.33140000      -2.09550000
H        1.73730000      -2.70720000      -1.22250000
H        1.85170000      -2.53590000       1.43990000
