19
Properties=species:S:1:pos:R:3 gdb_115040=T pbc="F F F"
C       -0.38000000       1.57650000       0.04510000
O       -0.28450000       0.25590000       0.52920000
C       -1.28430000      -0.61200000       0.04080000
C       -1.13540000      -1.01520000      -1.45600000
C       -1.49070000      -2.48060000      -1.44510000
C       -1.57750000      -2.97460000      -0.21000000
C       -1.24710000      -1.94070000       0.84610000
C        0.13800000      -2.23170000       1.42060000
O        0.33730000      -2.57570000       2.55550000
H        0.39960000       2.15920000       0.54080000
H       -0.22550000       1.63290000      -1.04240000
H       -1.36040000       2.02040000       0.27870000
H       -2.27330000      -0.14930000       0.18510000
H       -1.77930000      -0.42730000      -2.11940000
H       -0.10200000      -0.85300000      -1.79180000
H       -1.64890000      -3.05070000      -2.35420000
H       -1.80140000      -4.00350000       0.04640000
H       -1.94460000      -1.93880000       1.68840000
H        0.96550000      -2.14920000       0.68360000
