19
Properties=species:S:1:pos:R:3 gdb_67607=T pbc="F F F"
C       -0.02540000       1.46670000       0.04890000
C        0.04470000      -0.03340000       0.01060000
C       -0.40010000      -0.90600000      -1.14650000
C        0.51720000      -2.11540000      -1.24670000
C        0.82440000      -2.25080000       0.23210000
C       -0.46920000      -2.02620000       1.07770000
O        0.30490000      -1.24750000       2.03990000
C        1.05840000      -0.84410000       0.85900000
C       -1.14160000      -0.97130000       0.17680000
H        0.86060000       1.92430000      -0.40730000
H       -0.90200000       1.83700000      -0.49260000
H       -0.09530000       1.82760000       1.08120000
H       -0.86770000      -0.46500000      -2.02010000
H        0.01260000      -2.99750000      -1.65730000
H        1.41240000      -1.91920000      -1.84810000
H        1.48440000      -3.04030000       0.58340000
H       -1.06610000      -2.81790000       1.52830000
H        2.03310000      -0.41010000       1.08210000
H       -2.15670000      -0.62460000       0.31530000
