17
Properties=species:S:1:pos:R:3 gdb_63790=T pbc="F F F"
C        0.38930000       1.38400000      -0.00050000
C        0.05600000      -0.09380000       0.05570000
C       -1.40900000      -0.39630000      -0.22690000
O        0.90080000      -0.87850000      -0.86860000
C        1.34620000      -1.74280000       0.18790000
C        0.60290000      -0.91850000       1.24680000
O        1.86770000      -0.42960000       1.77820000
C        2.60780000      -1.18670000       0.88070000
O        3.78740000      -1.25710000       0.79460000
H        1.43340000       1.56340000       0.26030000
H        0.21140000       1.76090000      -1.01240000
H       -0.24450000       1.94750000       0.69150000
H       -1.67000000      -0.06550000      -1.23610000
H       -1.61120000      -1.46960000      -0.15910000
H       -2.05420000       0.12480000       0.48810000
H        1.27270000      -2.80800000      -0.03150000
H       -0.05950000      -1.27540000       2.03200000
