17
Properties=species:S:1:pos:R:3 gdb_23141=T pbc="F F F"
O       -0.31550000       1.71850000       1.16570000
N       -0.04660000       0.34770000       1.13680000
C       -0.88480000      -0.30630000       0.42050000
C       -0.61310000      -1.80210000       0.42150000
C       -0.30900000      -2.36330000      -0.89680000
N       -0.07160000      -2.81010000      -1.93590000
C       -2.04660000       0.28820000      -0.27590000
C       -2.27520000       0.12950000      -1.77590000
C       -3.20110000      -0.53820000      -0.80800000
H        0.37120000       2.04730000       1.75550000
H        0.23800000      -1.98260000       1.08350000
H       -1.47390000      -2.34300000       0.83250000
H       -2.30180000       1.26310000       0.11840000
H       -2.61600000       1.01270000      -2.30360000
H       -1.58970000      -0.49540000      -2.33430000
H       -3.14780000      -1.61840000      -0.72940000
H       -4.19750000      -0.13520000      -0.66670000
