20
Properties=species:S:1:pos:R:3 gdb_31956=T pbc="F F F"
C       -0.44480000       1.31620000      -0.27280000
C        0.17780000      -0.06540000      -0.00610000
C        1.03270000      -0.55690000      -1.11930000
C        2.34500000      -0.85880000      -1.26560000
N        2.59110000      -1.27540000      -2.56990000
C        1.43760000      -1.20890000      -3.15520000
C        1.08420000      -1.54750000      -4.56220000
C        0.12190000      -2.74240000      -4.67450000
O        0.43510000      -0.77980000      -2.33780000
H        0.33200000       2.07300000      -0.41690000
H       -1.06520000       1.29460000      -1.17290000
H       -1.07330000       1.62460000       0.56780000
H        0.79620000      -0.03260000       0.89680000
H       -0.62210000      -0.79150000       0.18990000
H        3.13070000      -0.80750000      -0.52810000
H        0.63300000      -0.66980000      -5.04150000
H        2.02210000      -1.75680000      -5.08220000
H        0.56790000      -3.64390000      -4.24440000
H       -0.81380000      -2.54120000      -4.14560000
H       -0.11530000      -2.94510000      -5.72280000
