19
Properties=species:S:1:pos:R:3 gdb_55198=T pbc="F F F"
C       -0.08060000       1.44650000       0.10380000
C       -0.02690000      -0.04420000       0.01810000
C       -0.15390000      -0.81170000      -1.06390000
C       -0.03740000      -2.27460000      -0.73590000
N        0.19000000      -2.25050000       0.70790000
C        0.19310000      -0.89230000       1.24610000
C        0.10440000      -3.32080000       1.55640000
N       -0.02540000      -4.55870000       0.92990000
O        0.10170000      -3.19870000       2.77060000
H        0.85110000       1.85230000       0.51710000
H       -0.24420000       1.89900000      -0.87740000
H       -0.88670000       1.77520000       0.77140000
H       -0.32070000      -0.46100000      -2.07520000
H       -0.94530000      -2.84160000      -0.99300000
H        0.79790000      -2.74900000      -1.27970000
H        1.14170000      -0.65760000       1.75100000
H       -0.59530000      -0.76350000       2.00050000
H        0.42070000      -4.68560000       0.03390000
H        0.13230000      -5.31880000       1.57450000
