18
Properties=species:S:1:pos:R:3 gdb_51555=T pbc="F F F"
O        0.47510000       1.29900000       1.59410000
C        0.28390000       1.62960000       0.44400000
N        1.23170000       1.66340000      -0.53530000
C        2.56200000       1.16020000      -0.36210000
C        3.71170000       1.93020000      -0.99580000
C        3.54700000       1.90930000       0.48750000
C        3.30390000       3.02050000       1.49930000
C        4.19170000       2.14530000       2.41220000
O        4.44800000       1.20930000       1.33240000
H       -0.70360000       1.96400000       0.06510000
H        0.91980000       1.86420000      -1.47420000
H        2.65980000       0.07670000      -0.33250000
H        4.51950000       1.34800000      -1.42540000
H        3.47570000       2.85240000      -1.51850000
H        3.73810000       3.98540000       1.23000000
H        2.27170000       3.14250000       1.82300000
H        5.11870000       2.59920000       2.77650000
H        3.66290000       1.66330000       3.24080000
