14
Properties=species:S:1:pos:R:3 gdb_19173=T pbc="F F F"
O        0.23870000       1.36350000      -0.22050000
C        0.06210000       0.00050000      -0.05080000
C        0.00040000      -0.64370000       1.40140000
C       -1.46260000      -0.10780000       1.49950000
O       -1.57000000       1.28560000       1.72990000
C       -1.39410000      -0.63710000       0.01320000
C       -0.66080000      -1.81180000       0.65960000
O       -0.61630000      -3.00200000       0.60970000
H       -0.33220000       1.80740000       0.42320000
H        0.74520000      -0.49640000      -0.74230000
H        0.76060000      -0.64980000       2.17820000
H       -2.13280000      -0.65390000       2.17210000
H       -2.48710000       1.54380000       1.58840000
H       -2.17510000      -0.63470000      -0.74390000
