13
Properties=species:S:1:pos:R:3 gdb_24821=T pbc="F F F"
O        0.01360000      -0.06800000       0.00380000
C       -0.00880000       1.15140000       0.00960000
C       -1.24220000       1.94360000       0.03000000
C       -1.23220000       3.29330000       0.03650000
N       -0.04870000       3.99350000       0.02410000
C        1.14710000       3.34930000       0.00520000
C        1.21840000       1.98670000      -0.00240000
C        2.49550000       1.35630000      -0.02230000
N        3.54280000       0.86310000      -0.03850000
H       -2.18000000       1.40270000       0.03990000
H       -2.13030000       3.89850000       0.05140000
H       -0.06580000       4.99990000       0.02930000
H        2.02970000       3.97660000      -0.00340000
