15
Properties=species:S:1:pos:R:3 gdb_13065=T pbc="F F F"
C        0.02180000       1.52170000      -0.09060000
C        0.03530000       0.06810000      -0.02570000
C        0.03830000      -1.13480000       0.01740000
C        0.03990000      -2.58000000       0.08570000
C        0.05490000      -3.26040000       1.48360000
O       -1.19430000      -3.94530000       1.17200000
C       -1.29630000      -3.31770000      -0.05100000
N       -2.18220000      -3.36910000      -0.93140000
H        0.80650000       1.89770000      -0.75610000
H       -0.93890000       1.88950000      -0.46710000
H        0.18300000       1.96520000       0.89810000
H        0.78880000      -3.00690000      -0.58960000
H        0.86130000      -3.97330000       1.66810000
H       -0.06850000      -2.58010000       2.32810000
H       -2.94630000      -3.98960000      -0.65890000
