20
Properties=species:S:1:pos:R:3 gdb_32528=T pbc="F F F"
C        0.21150000       1.16340000       0.26330000
N       -0.04900000      -0.23810000      -0.01280000
C        0.57090000      -0.78090000      -1.15160000
C        1.30190000      -0.13290000      -2.12590000
N        1.65070000      -1.07380000      -3.07330000
C        1.14500000      -2.29840000      -2.72920000
C        0.46760000      -2.15930000      -1.53700000
N       -0.22010000      -3.17900000      -0.83300000
C        0.60060000      -4.01560000       0.04420000
H        1.28400000       1.40770000       0.35320000
H       -0.20150000       1.77550000      -0.54610000
H       -0.28920000       1.45070000       1.19160000
H        0.11390000      -0.81380000       0.80420000
H        1.59540000       0.89780000      -2.22870000
H        2.16900000      -0.87940000      -3.90970000
H        1.29070000      -3.16790000      -3.34900000
H       -0.98750000      -2.77080000      -0.31100000
H        1.32710000      -4.56920000      -0.55780000
H        1.16600000      -3.45870000       0.81160000
H       -0.04020000      -4.74460000       0.55050000
