21
Properties=species:S:1:pos:R:3 gdb_67259=T pbc="F F F"
C       -0.08310000       1.50390000       0.00320000
C       -0.05930000      -0.00010000       0.04630000
C        0.84510000      -0.83060000      -0.96810000
C        1.91890000      -0.97810000       0.13930000
C        0.71950000      -0.87660000       1.09620000
C       -0.31100000      -1.95830000       0.65900000
C       -0.00970000      -2.10630000      -0.89120000
C       -1.46090000      -1.65650000      -1.19720000
C       -1.33570000      -0.89830000       0.13480000
H        0.92980000       1.92290000      -0.00950000
H       -0.59940000       1.86480000      -0.89490000
H       -0.60280000       1.92060000       0.87350000
H        1.09230000      -0.44920000      -1.96060000
H        2.52770000      -1.88890000       0.14470000
H        2.57260000      -0.10330000       0.20630000
H        0.80780000      -0.62880000       2.15460000
H       -0.57530000      -2.83710000       1.24430000
H        0.41030000      -3.01810000      -1.31820000
H       -1.64110000      -1.09120000      -2.11860000
H       -2.17420000      -2.48380000      -1.12960000
H       -2.18880000      -0.53100000       0.70660000
