18
Properties=species:S:1:pos:R:3 gdb_69813=T pbc="F F F"
C       -0.08200000       1.51900000       0.02420000
C        0.04880000       0.01430000       0.00060000
O       -0.70350000      -0.66690000       1.03340000
C        0.71310000      -0.71410000       1.10810000
C        1.39450000      -2.02780000       0.84040000
N        0.53990000      -3.18080000       0.53780000
C        1.35540000      -2.58030000      -0.55020000
C        0.65110000      -1.80090000      -1.59060000
C        0.05540000      -0.63040000      -1.33920000
H        0.73150000       1.99220000      -0.53600000
H       -1.02850000       1.82760000      -0.43380000
H       -0.06520000       1.89130000       1.05120000
H        1.14780000      -0.12520000       1.91680000
H        2.30020000      -2.19390000       1.41840000
H        0.99910000      -4.02930000       0.86170000
H        2.21160000      -3.15780000      -0.89110000
H        0.64490000      -2.20520000      -2.59920000
H       -0.43290000      -0.08680000      -2.14400000
