19
Properties=species:S:1:pos:R:3 gdb_120216=T pbc="F F F"
O       -0.04590000       1.43750000      -0.03470000
C        0.01610000       0.02850000       0.12300000
C       -1.37840000      -0.53020000      -0.14010000
C       -1.42910000      -2.04910000      -0.07160000
C       -1.49060000      -2.70450000       1.35890000
O       -2.90650000      -2.33120000       1.40600000
C       -2.85810000      -2.69600000      -0.01320000
C       -2.51460000      -4.19320000       0.05980000
C       -1.57130000      -4.19890000       1.00470000
H        0.82400000       1.80060000       0.15540000
H        0.73760000      -0.41940000      -0.58110000
H        0.34460000      -0.24370000       1.13940000
H       -2.08240000      -0.10150000       0.57820000
H       -1.69060000      -0.19990000      -1.13910000
H       -0.72930000      -2.51410000      -0.77270000
H       -0.90420000      -2.37000000       2.21420000
H       -3.70580000      -2.34680000      -0.60220000
H       -2.93860000      -4.99260000      -0.52930000
H       -0.98830000      -5.00490000       1.42470000
