17
Properties=species:S:1:pos:R:3 gdb_128138=T pbc="F F F"
C        0.42300000       1.36310000       0.45500000
N       -0.19170000       0.20740000      -0.20990000
C        0.57010000      -0.38290000      -1.24520000
C        0.26380000      -0.34050000      -2.57960000
N       -0.76180000       0.28540000      -3.23790000
O        1.18050000      -0.97420000      -3.30770000
N        2.18140000      -1.50000000      -2.42990000
C        1.79980000      -1.11780000      -1.23160000
N        2.57730000      -1.38970000      -0.11640000
H        1.40250000       1.15040000       0.90840000
H        0.56180000       2.16320000      -0.27780000
H       -0.25250000       1.72860000       1.23470000
H       -0.49760000      -0.47400000       0.47580000
H       -1.53130000       0.50940000      -2.62170000
H       -1.04610000      -0.15370000      -4.10190000
H        3.26770000      -2.10940000      -0.28710000
H        2.03980000      -1.58190000       0.71730000
