20
Properties=species:S:1:pos:R:3 gdb_110371=T pbc="F F F"
O        0.58140000       0.43880000       1.17550000
C        0.04310000       0.11440000      -0.09800000
C       -1.32360000      -0.56930000      -0.04250000
C       -1.71400000      -1.98610000      -0.29690000
C       -0.82770000      -3.19310000       0.03140000
C       -1.60210000      -3.67690000       1.31720000
C       -1.04800000      -2.31710000       1.85260000
C        0.22530000      -2.65360000       1.03840000
N       -1.91230000      -1.38400000       1.05840000
H       -0.12770000       0.82270000       1.70150000
H       -0.07850000       1.02390000      -0.70580000
H        0.79480000      -0.49740000      -0.60130000
H       -2.10340000       0.12070000      -0.36780000
H       -2.60750000      -2.18070000      -0.88790000
H       -0.56970000      -3.86690000      -0.78520000
H       -2.68850000      -3.77120000       1.25330000
H       -1.15580000      -4.55460000       1.78920000
H       -1.02270000      -2.05740000       2.90980000
H        0.76900000      -3.48100000       1.49970000
H        0.92570000      -1.86850000       0.78280000
