15
Properties=species:S:1:pos:R:3 gdb_10997=T pbc="F F F"
C       -0.03820000       1.54840000       0.03340000
C        0.09930000       0.04940000       0.01300000
N       -0.77780000      -0.81500000       0.85160000
C        0.70070000      -0.76650000       1.09070000
C        1.43140000      -1.92130000       0.42410000
O        2.12090000      -2.75030000       0.96740000
C        1.15610000      -1.77890000      -1.03630000
C        0.43710000      -0.67350000      -1.26560000
H        0.86300000       2.03120000      -0.35840000
H       -0.88590000       1.87320000      -0.58070000
H       -0.19980000       1.91320000       1.05250000
H       -1.21710000      -0.23330000       1.56770000
H        1.07540000      -0.35720000       2.02130000
H        1.49230000      -2.50670000      -1.76320000
H        0.08410000      -0.33090000      -2.23230000
