21
Properties=species:S:1:pos:R:3 gdb_77913=T pbc="F F F"
C        0.39650000       1.41750000      -1.21440000
C        0.36260000      -0.07600000      -0.89080000
C        1.60320000      -1.04810000      -0.98560000
C        2.11370000      -0.52720000       0.40680000
C        2.93240000       0.76000000       0.53930000
C        0.53620000      -0.60730000       0.59020000
C       -0.27630000      -0.26880000       1.80600000
C        0.72020000      -1.95860000      -0.11960000
O        0.36420000      -3.09450000      -0.03430000
H        0.77020000       1.58940000      -2.22980000
H       -0.62530000       1.80960000      -1.17740000
H        0.99170000       2.01540000      -0.52700000
H       -0.51650000      -0.50020000      -1.39020000
H        2.19470000      -1.29460000      -1.86530000
H        2.61680000      -1.30510000       0.99240000
H        2.63920000       1.33000000       1.42810000
H        3.98850000       0.49880000       0.65980000
H        2.86650000       1.41830000      -0.32550000
H       -0.19810000       0.79440000       2.05930000
H       -1.33470000      -0.49860000       1.64400000
H        0.06050000      -0.84660000       2.67310000
