16
Properties=species:S:1:pos:R:3 gdb_48334=T pbc="F F F"
O       -1.11590000       1.19930000      -0.40460000
C       -0.05040000       0.86360000       0.03970000
C        1.18360000       1.76030000       0.05200000
C        1.19340000       2.71980000      -1.14600000
C        1.39660000       2.02540000      -2.41590000
N        1.55990000       1.47880000      -3.42010000
C        1.43070000       2.42260000       1.43990000
C        2.73560000       1.60290000       1.43360000
O        2.38940000       0.98710000       0.17030000
H        0.12100000      -0.12650000       0.51540000
H        0.23130000       3.24180000      -1.17610000
H        1.98680000       3.46250000      -1.01810000
H        1.53260000       3.50840000       1.41690000
H        0.71210000       2.14770000       2.21370000
H        3.66210000       2.18300000       1.36140000
H        2.83870000       0.86020000       2.23110000
