15
Properties=species:S:1:pos:R:3 gdb_25283=T pbc="F F F"
O       -0.07660000      -0.05130000       0.00340000
C       -0.02090000       1.15570000       0.00900000
C       -1.24860000       2.10430000       0.03250000
C       -0.69520000       3.54890000       0.03180000
N        0.75510000       3.34370000       0.00950000
C        1.86860000       4.10030000      -0.00280000
N        2.96670000       3.34840000      -0.02300000
C        2.53300000       2.05600000      -0.02360000
C        1.15070000       2.02200000      -0.00350000
H       -1.87590000       1.89780000      -0.83840000
H       -1.84930000       1.88850000       0.91970000
H       -1.00940000       4.12040000      -0.84580000
H       -0.98340000       4.11140000       0.92400000
H        1.85130000       5.18010000       0.00330000
H        3.22100000       1.22490000      -0.03820000
