17
Properties=species:S:1:pos:R:3 gdb_84900=T pbc="F F F"
N        0.00130000       1.49450000      -0.12500000
C        0.00910000       0.02920000      -0.05400000
C        0.76260000      -0.53730000       1.13230000
C        0.13600000      -1.00370000       2.21070000
C       -1.36270000      -1.00420000       2.31730000
O       -1.98650000      -0.22430000       1.30710000
C       -1.43890000      -0.49650000       0.02470000
C       -2.32140000       0.10440000      -0.98360000
N       -3.02040000       0.51810000      -1.80370000
H       -0.35500000       1.86200000       0.75320000
H        0.95000000       1.84290000      -0.22280000
H        0.45130000      -0.34020000      -0.98690000
H        1.84820000      -0.52070000       1.08150000
H        0.68490000      -1.40730000       3.05740000
H       -1.74790000      -2.03990000       2.29110000
H       -1.68650000      -0.56860000       3.26880000
H       -1.42590000      -1.58400000      -0.15540000
