14
Properties=species:S:1:pos:R:3 gdb_29470=T pbc="F F F"
N       -0.00740000       1.35100000       0.12950000
C        0.02020000      -0.01090000       0.03910000
N       -1.04120000      -0.75990000       0.01590000
C       -0.63100000      -2.17830000      -0.01190000
C        0.85950000      -2.09250000      -0.01730000
C        1.25330000      -0.80400000       0.01450000
N        2.63710000      -0.72300000       0.00820000
C        2.99120000      -1.96990000      -0.02460000
O        1.95930000      -2.88210000      -0.04100000
H        0.80710000       1.84990000      -0.18920000
H       -0.89520000       1.78620000      -0.06900000
H       -1.03170000      -2.70670000       0.86220000
H       -1.04240000      -2.67200000      -0.90090000
H        3.98650000      -2.38540000      -0.04120000
