20
Properties=species:S:1:pos:R:3 gdb_110066=T pbc="F F F"
C       -0.22780000       1.62170000       0.03070000
C        0.06640000       0.13430000      -0.01710000
C       -0.91810000      -0.72450000       0.75620000
C        0.74570000      -0.49820000      -1.21590000
C        1.24980000       0.18450000      -2.46560000
O        2.32300000      -0.55680000      -3.01700000
N        1.47370000      -0.24070000       0.01050000
C        2.17020000      -1.17050000       0.74280000
O        2.89910000      -2.00300000       0.25010000
H        0.53700000       2.20190000      -0.48730000
H       -1.19900000       1.83330000      -0.42850000
H       -0.26810000       1.96600000       1.06990000
H       -1.92980000      -0.59140000       0.35950000
H       -0.66170000      -1.78570000       0.69190000
H       -0.93900000      -0.43870000       1.81340000
H        0.50040000      -1.54750000      -1.38600000
H        0.46520000       0.21470000      -3.22990000
H        1.54500000       1.21960000      -2.24170000
H        2.89360000      -0.82870000      -2.28650000
H        2.06630000      -1.02980000       1.83500000
