20
Properties=species:S:1:pos:R:3 gdb_14836=T pbc="F F F"
C        0.12990000       1.52320000       0.17560000
C        0.27740000      -0.00110000       0.14210000
C        0.59550000      -0.53230000      -1.25420000
C        2.06970000      -0.32290000      -1.71430000
C        2.37970000      -1.79880000      -1.35580000
C        0.84430000      -2.08680000      -1.34450000
C        0.30110000      -2.96400000      -0.32860000
C       -0.14100000      -3.68540000       0.52740000
H        1.04490000       2.02520000      -0.15740000
H       -0.68420000       1.85480000      -0.47870000
H       -0.09110000       1.87660000       1.18740000
H        1.06080000      -0.31310000       0.84480000
H       -0.64690000      -0.47090000       0.49810000
H       -0.16410000      -0.17310000      -1.95630000
H        2.14900000      -0.12980000      -2.78750000
H        2.64150000       0.44320000      -1.18490000
H        2.97930000      -2.38160000      -2.05800000
H        2.80990000      -1.90490000      -0.35770000
H        0.53190000      -2.44010000      -2.33320000
H       -0.53190000      -4.32650000       1.27780000
