14
Properties=species:S:1:pos:R:3 gdb_49616=T pbc="F F F"
O       -0.18610000       0.02830000      -0.00610000
C       -0.04850000       1.21880000       0.01760000
N        1.16350000       1.90560000      -0.00780000
C        1.25780000       3.34040000       0.00530000
C        1.94290000       3.95670000       1.21120000
C        2.73480000       3.58630000      -0.01310000
O        3.37270000       2.32840000      -0.01910000
C        2.44980000       1.31210000      -0.01750000
O        2.73550000       0.15930000      -0.00150000
H       -0.89190000       1.93620000       0.05700000
H        0.54150000       3.88550000      -0.59640000
H        1.77720000       5.01510000       1.37850000
H        2.05730000       3.35160000       2.10380000
H        3.23570000       4.31830000      -0.63230000
