16
Properties=species:S:1:pos:R:3 gdb_27157=T pbc="F F F"
C       -0.37190000       1.50920000       0.18720000
C       -0.06520000       0.05930000       0.02110000
C        0.21760000      -0.65640000      -1.10210000
O        0.42460000      -1.96250000      -0.72560000
C        0.24960000      -1.95640000       0.61160000
N       -0.03580000      -0.80350000       1.11720000
C        0.33710000      -0.31740000      -2.52200000
C        1.03010000      -1.17710000      -3.49500000
O       -0.39370000      -1.12160000      -3.46560000
H        0.36970000       1.99220000       0.83210000
H       -0.38430000       2.03150000      -0.77250000
H       -1.34910000       1.64270000       0.66240000
H        0.36040000      -2.90210000       1.11910000
H        0.29190000       0.75200000      -2.72050000
H        1.50420000      -0.72290000      -4.36440000
H        1.46770000      -2.11320000      -3.15430000
