23
Properties=species:S:1:pos:R:3 gdb_119004=T pbc="F F F"
C        0.00040000       1.35880000      -0.33680000
C        0.03340000      -0.09410000       0.11050000
O       -1.29610000      -0.59770000       0.05250000
C       -1.44530000      -2.00960000       0.11160000
C       -0.87400000      -2.60740000       1.39330000
C       -2.95840000      -2.26640000      -0.11560000
C       -3.03840000      -2.87030000      -1.53530000
C       -1.64910000      -2.56020000      -2.10700000
O       -0.78040000      -2.62890000      -0.97930000
H        1.00170000       1.79740000      -0.28260000
H       -0.35840000       1.43760000      -1.36710000
H       -0.66820000       1.94320000       0.30220000
H        0.68710000      -0.68810000      -0.54000000
H        0.42650000      -0.16280000       1.13590000
H       -1.30260000      -2.10610000       2.26540000
H       -1.11100000      -3.67280000       1.44260000
H        0.21320000      -2.50420000       1.42460000
H       -3.36220000      -2.94250000       0.64090000
H       -3.48750000      -1.31550000      -0.03860000
H       -3.18840000      -3.95280000      -1.48810000
H       -3.84620000      -2.44620000      -2.13640000
H       -1.29540000      -3.28420000      -2.84500000
H       -1.62020000      -1.55680000      -2.55470000
