19
Properties=species:S:1:pos:R:3 gdb_94754=T pbc="F F F"
C        0.03900000       1.55690000      -0.05870000
C        0.05480000       0.04040000       0.04810000
O        0.77090000      -0.48650000      -1.07360000
C        1.20580000      -1.79810000      -0.75210000
C        1.50090000      -1.77760000       0.75050000
C        2.26450000      -0.55060000       1.22160000
C        0.76380000      -0.54540000       1.26170000
C        1.56760000      -3.01400000       1.46400000
C        1.62400000      -4.07050000       2.03740000
H        1.05400000       1.95980000      -0.00330000
H       -0.40430000       1.86380000      -1.01010000
H       -0.55360000       1.98950000       0.75310000
H       -0.98180000      -0.33850000       0.03820000
H        0.42720000      -2.54830000      -0.95900000
H        2.08060000      -2.02000000      -1.37100000
H        2.78850000      -0.64080000       2.16530000
H        2.76800000       0.04180000       0.46440000
H        0.24860000      -0.56880000       2.21410000
H        1.67620000      -4.99860000       2.55020000
