19
Properties=species:S:1:pos:R:3 gdb_91767=T pbc="F F F"
C       -0.27610000       1.54840000      -0.05920000
C        0.00290000       0.05540000       0.00390000
O        0.70820000      -0.38230000      -1.17420000
C        1.80920000      -1.15370000      -0.73000000
C        3.05780000      -0.27800000      -0.57620000
O        2.79810000       0.81910000       0.28830000
C        2.09620000       0.45650000       1.47050000
C        0.91260000      -0.45530000       1.14520000
O        1.44860000      -1.64700000       0.54820000
H        0.65350000       2.11180000      -0.15880000
H       -0.91060000       1.77130000      -0.92130000
H       -0.80650000       1.87780000       0.84110000
H       -0.94580000      -0.49690000       0.04970000
H        1.97330000      -1.99760000      -1.40720000
H        3.87860000      -0.90390000      -0.19140000
H        3.35400000       0.14970000      -1.53780000
H        2.75660000      -0.07660000       2.17210000
H        1.77670000       1.39290000       1.93730000
H        0.36220000      -0.73490000       2.04640000
