19
Properties=species:S:1:pos:R:3 gdb_19689=T pbc="F F F"
C        0.01780000       1.55740000       0.10180000
C        0.04920000       0.03320000      -0.05710000
C       -1.33260000      -0.60250000       0.05380000
C       -1.52770000      -2.10920000       0.08930000
C       -1.48060000      -2.57940000       1.50940000
C       -1.25920000      -1.38740000       2.42090000
C       -2.12440000      -0.64160000       1.38680000
N       -2.75640000      -2.00750000       0.95040000
H        1.01840000       1.98880000       0.00280000
H       -0.62200000       2.02120000      -0.65720000
H       -0.37260000       1.84730000       1.08350000
H        0.47380000      -0.22520000      -1.03610000
H        0.72580000      -0.40380000       0.68620000
H       -1.99620000      -0.19040000      -0.71650000
H       -1.48730000      -2.80640000      -0.74100000
H       -1.40460000      -3.63260000       1.75690000
H       -1.80480000      -1.51650000       3.35940000
H       -0.24490000      -1.03380000       2.63110000
H       -2.77740000       0.17760000       1.68140000
