17
Properties=species:S:1:pos:R:3 gdb_127229=T pbc="F F F"
C       -0.04730000       1.44660000       0.03200000
N        0.01890000      -0.00100000      -0.02850000
C        0.05400000      -0.78180000      -1.14520000
C        0.05170000      -2.09430000      -0.72680000
C        0.09330000      -3.32210000      -1.58590000
C        0.01080000      -1.99370000       0.69340000
C       -0.00080000      -3.10150000       1.65670000
O       -0.02930000      -2.99480000       2.86040000
N       -0.01100000      -0.71280000       1.09510000
H        0.61620000       1.87980000      -0.72000000
H       -1.06860000       1.79990000      -0.14260000
H        0.27330000       1.75230000       1.02720000
H        0.08070000      -0.34930000      -2.13350000
H        0.97760000      -3.93450000      -1.37980000
H       -0.78390000      -3.95890000      -1.42890000
H        0.11910000      -3.05330000      -2.64540000
H        0.01880000      -4.10460000       1.17300000
