15
Properties=species:S:1:pos:R:3 gdb_14939=T pbc="F F F"
O       -0.94370000       1.08510000       0.27630000
C        0.20040000       0.83760000       0.00400000
C        1.30450000       1.88290000       0.04440000
C        1.48600000       2.48980000       1.43770000
C        2.70780000       3.41210000       1.40580000
N        3.86660000       2.80420000       0.75530000
C        3.67460000       1.82500000      -0.01680000
O        2.50470000       1.24120000      -0.39950000
H        0.54550000      -0.17800000      -0.28900000
H        1.04590000       2.67590000      -0.67220000
H        0.57070000       3.01450000       1.72260000
H        1.64720000       1.68250000       2.16150000
H        2.47080000       4.35090000       0.88770000
H        3.00140000       3.69090000       2.42320000
H        4.50730000       1.31160000      -0.49330000
