16
Properties=species:S:1:pos:R:3 gdb_98816=T pbc="F F F"
C       -0.19550000       1.36290000       0.05900000
O       -0.18430000      -0.05990000      -0.13470000
C        0.67590000      -0.50770000      -1.05880000
O        1.37580000       0.19540000      -1.74310000
C        0.66740000      -2.02130000      -1.10300000
C        1.38740000      -2.67000000      -2.29710000
O        2.38000000      -3.25760000      -1.39300000
C        1.78810000      -2.67900000      -0.29700000
N        2.08770000      -2.69600000       0.91730000
H        0.79210000       1.71280000       0.36810000
H       -0.47990000       1.87280000      -0.86460000
H       -0.93010000       1.54730000       0.84210000
H       -0.32060000      -2.41150000      -0.85890000
H        0.83710000      -3.44730000      -2.83000000
H        1.85370000      -1.96110000      -2.98180000
H        2.92880000      -3.24940000       1.08890000
