20
Properties=species:S:1:pos:R:3 gdb_93237=T pbc="F F F"
C       -0.00340000       1.53060000       0.07050000
C        0.04210000       0.01290000      -0.00490000
C        0.76700000      -0.49520000      -1.25060000
N        0.96220000      -1.93210000      -1.14300000
C        0.98920000      -2.64910000       0.01610000
O        1.22120000      -3.84460000       0.04100000
C        0.64830000      -1.87130000       1.29730000
C        1.56500000      -2.27650000       2.44240000
O        0.72720000      -0.46040000       1.14340000
H        1.01010000       1.94120000       0.10790000
H       -0.51900000       1.94820000      -0.79950000
H       -0.53280000       1.84530000       0.97290000
H       -0.98510000      -0.39150000      -0.00950000
H        0.17460000      -0.27570000      -2.14650000
H        1.72860000       0.02960000      -1.34730000
H        1.22280000      -2.45850000      -1.96470000
H       -0.39110000      -2.15290000       1.54450000
H        2.59150000      -1.96140000       2.23460000
H        1.23690000      -1.80270000       3.37070000
H        1.54680000      -3.36110000       2.55500000
