12
Properties=species:S:1:pos:R:3 gdb_129170=T pbc="F F F"
N       -0.24490000       1.23660000       0.00250000
C        0.01920000      -0.00370000      -0.04750000
N        1.23410000      -0.69410000      -0.01110000
C        1.10270000      -2.08270000       0.06680000
C       -0.35760000      -2.25080000       0.03860000
N       -0.97070000      -0.98940000      -0.14700000
N       -0.96050000      -3.38870000      -0.06880000
N       -1.47150000      -4.40960000      -0.09090000
O        1.98980000      -2.89920000       0.12110000
H        0.59630000       1.80190000       0.08140000
H        2.13400000      -0.24270000      -0.00660000
H       -1.85620000      -0.76760000       0.28450000
