13
Properties=species:S:1:pos:R:3 gdb_12619=T pbc="F F F"
C       -0.01020000       1.46900000      -0.00610000
N        0.01070000       0.02110000      -0.01270000
C        0.05660000      -0.79760000      -1.13610000
C        0.06970000      -2.12010000      -0.85450000
C        0.02900000      -2.25220000       0.59970000
O        0.02430000      -3.22080000       1.31790000
C       -0.01000000      -0.76920000       1.13320000
O       -0.04770000      -0.37770000       2.26960000
H        0.89250000       1.88250000      -0.46810000
H       -0.88970000       1.85640000      -0.53120000
H       -0.05170000       1.78340000       1.03820000
H        0.07770000      -0.32660000      -2.11120000
H        0.10360000      -2.92980000      -1.56520000
