11
Properties=species:S:1:pos:R:3 gdb_21827=T pbc="F F F"
O       -0.24220000       0.03210000       0.00040000
C       -0.06900000       1.23010000       0.00770000
N        1.16330000       1.82550000       0.00100000
C        2.35540000       1.11750000      -0.01530000
C        2.63130000      -0.21530000      -0.02780000
O        3.96430000      -0.34200000      -0.04210000
N        4.50950000       0.95180000      -0.03670000
N        3.55510000       1.78240000      -0.02110000
H       -0.88600000       1.97250000       0.02120000
H        1.23810000       2.83180000       0.00800000
H        2.02260000      -1.09960000      -0.02890000
