15
Properties=species:S:1:pos:R:3 gdb_26458=T pbc="F F F"
O        0.21240000       1.55850000       0.03430000
C        0.04060000       0.16900000       0.07100000
C        0.59350000      -0.45310000      -1.20870000
O        1.06170000       0.22710000      -2.08750000
C        0.72570000      -0.44860000       1.26040000
C        1.66700000       0.15280000       2.03690000
O        2.08630000      -0.69090000       3.01560000
C        1.40480000      -1.85400000       2.85770000
C        0.55480000      -1.76970000       1.80210000
H        0.60090000       1.74640000      -0.83570000
H       -1.03430000      -0.09200000       0.10060000
H        0.54700000      -1.55770000      -1.27820000
H        2.09780000       1.13830000       2.03170000
H        1.63020000      -2.63130000       3.56880000
H       -0.11750000      -2.54060000       1.45800000
