20
Properties=species:S:1:pos:R:3 gdb_82030=T pbc="F F F"
C       -0.09850000       1.59190000       0.36870000
C        0.05740000       0.08620000       0.19540000
C        0.36970000      -0.47640000      -1.19320000
C        1.72310000      -0.11490000      -1.65430000
N        1.59420000      -1.24100000      -0.70990000
C        1.34630000      -0.65500000       0.66870000
C        2.51050000       0.10330000       1.29880000
C        1.04760000      -1.86260000       1.55040000
O        0.03690000      -2.03720000       2.17850000
H        0.73620000       2.15470000      -0.06000000
H       -1.01500000       1.93740000      -0.12150000
H       -0.17200000       1.85690000       1.42860000
H       -0.80570000      -0.41850000       0.63610000
H       -0.35420000      -0.94690000      -1.85130000
H        2.01960000      -0.44530000      -2.64530000
H        2.19010000       0.81330000      -1.33850000
H        2.83110000       0.94960000       0.68750000
H        2.22620000       0.49180000       2.28230000
H        3.37140000      -0.56150000       1.42900000
H        1.87940000      -2.60170000       1.56310000
