17
Properties=species:S:1:pos:R:3 gdb_86284=T pbc="F F F"
N       -0.10490000       1.41560000       0.08820000
C        0.02920000      -0.03240000      -0.04230000
C        0.93810000      -0.45720000      -1.10410000
N        1.65800000      -0.79500000      -1.94500000
C        0.25500000      -0.65990000       1.38890000
O        0.89960000       0.13800000       2.33480000
C       -1.27260000      -0.89630000       1.50650000
C       -1.40760000      -0.68670000      -0.02360000
O       -2.46000000       0.08400000      -0.51930000
H        0.80740000       1.82600000       0.26860000
H       -0.43760000       1.80600000      -0.78930000
H        0.82140000      -1.59030000       1.32040000
H        0.37970000       0.94580000       2.42520000
H       -1.60910000      -1.84770000       1.92050000
H       -1.75350000      -0.08150000       2.05700000
H       -1.41410000      -1.62630000      -0.57880000
H       -2.48020000       0.89990000      -0.00460000
