15
Properties=species:S:1:pos:R:3 gdb_51444=T pbc="F F F"
O       -0.58000000       0.53660000       0.66170000
C        0.21640000       0.85020000      -0.18510000
C        1.29820000       1.89570000       0.01570000
C        1.32510000       2.93240000      -1.10930000
C        2.55140000       3.85840000      -1.21240000
O        3.67070000       3.01650000      -1.45060000
C        2.88350000       3.42940000      -2.59380000
C        1.68280000       2.48780000      -2.57250000
O        1.14680000       1.78370000      -3.37350000
H        0.20870000       0.37610000      -1.19020000
H        1.14520000       2.36620000       0.99170000
H        2.26730000       1.37940000       0.02850000
H        0.38480000       3.49640000      -1.15740000
H        2.72200000       4.82250000      -0.74990000
H        3.39750000       3.93070000      -3.40440000
