18
Properties=species:S:1:pos:R:3 gdb_80695=T pbc="F F F"
C        0.01550000       1.57810000       0.10020000
C        0.06650000       0.07970000       0.09640000
C       -0.87260000      -0.86330000       0.79730000
O       -1.61150000      -1.85900000       0.16690000
C        0.60230000      -0.96200000       1.11220000
C        1.34110000      -1.65320000      -0.04250000
N        0.75210000      -0.66560000      -0.96060000
C        0.62540000      -0.69350000      -2.30970000
O        1.13410000      -1.52680000      -3.03160000
H        1.01060000       2.00670000      -0.05700000
H       -0.64900000       1.96060000      -0.68260000
H       -0.36760000       1.93810000       1.05930000
H       -1.45610000      -0.39950000       1.58840000
H       -1.29150000      -1.95200000      -0.73790000
H        1.01190000      -0.80020000       2.10030000
H        2.42980000      -1.56800000       0.00670000
H        1.06530000      -2.69040000      -0.25560000
H        0.02130000       0.15730000      -2.68670000
