19
Properties=species:S:1:pos:R:3 gdb_124556=T pbc="F F F"
C       -0.32380000       1.72660000      -0.23140000
C        0.11160000       0.26950000      -0.02730000
C       -1.09920000      -0.64010000       0.26680000
C        0.89200000      -0.26060000      -1.19910000
N        0.78180000       0.21880000      -2.40830000
O        1.61800000      -0.52640000      -3.19270000
N        2.26210000      -1.48140000      -2.45690000
C        1.83530000      -1.34270000      -1.23110000
C        2.32260000      -2.20890000      -0.11730000
H        0.53600000       2.37670000      -0.41320000
H       -0.99460000       1.81600000      -1.09010000
H       -0.85030000       2.08880000       0.65660000
H        0.77890000       0.22530000       0.84430000
H       -1.80290000      -0.62230000      -0.57130000
H       -0.79920000      -1.67930000       0.43220000
H       -1.62390000      -0.29390000       1.16250000
H        2.73980000      -1.60520000       0.69540000
H        1.50920000      -2.80800000       0.30490000
H        3.09710000      -2.88560000      -0.48190000
