16
Properties=species:S:1:pos:R:3 gdb_130942=T pbc="F F F"
O       -0.23540000       0.01130000       0.06230000
C       -0.03370000       1.19720000       0.05840000
C        1.32600000       1.84620000      -0.05980000
C        1.36760000       2.88510000      -1.19780000
C        2.60980000       3.71600000      -1.14990000
N        3.11500000       4.31140000      -0.08230000
C        4.21910000       4.94070000      -0.57170000
N        4.43570000       4.77690000      -1.86530000
N        3.39150000       3.98650000      -2.21750000
H       -0.87760000       1.92260000       0.14990000
H        1.53590000       2.37190000       0.88080000
H        2.08390000       1.07020000      -0.19330000
H        1.29000000       2.38840000      -2.17120000
H        0.49620000       3.54820000      -1.11420000
H        4.88100000       5.53270000       0.04250000
H        3.29240000       3.68650000      -3.17380000
