23
Properties=species:S:1:pos:R:3 gdb_92509=T pbc="F F F"
C       -0.22000000       1.53740000       0.06290000
C       -0.01480000       0.02070000      -0.00470000
C        0.82870000      -0.42570000      -1.24640000
C        1.51130000      -1.72050000      -0.77390000
C        3.05650000      -1.98130000      -0.65000000
C        2.84440000      -2.29200000       0.88090000
C        1.52130000      -1.57490000       0.72050000
C        0.77350000      -0.57420000       1.18060000
C        0.69440000      -0.03540000       2.57460000
H        0.73920000       2.06210000       0.14280000
H       -0.72180000       1.89870000      -0.84110000
H       -0.83600000       1.82870000       0.92010000
H       -1.01180000      -0.44570000      -0.05720000
H        0.22000000      -0.53700000      -2.14950000
H        1.58330000       0.34500000      -1.45040000
H        1.00010000      -2.62300000      -1.13340000
H        3.48400000      -2.78030000      -1.26120000
H        3.63460000      -1.06450000      -0.79320000
H        2.74370000      -3.36890000       1.05690000
H        3.56520000      -1.88740000       1.59630000
H        0.92990000       1.03490000       2.61640000
H       -0.31670000      -0.14640000       2.98950000
H        1.38410000      -0.56140000       3.24090000
