13
Properties=species:S:1:pos:R:3 gdb_20394=T pbc="F F F"
C        0.04000000       1.38520000      -0.14530000
C        1.51610000       1.85240000       0.14490000
C        2.07200000       0.53580000       0.56990000
C        1.10540000      -0.39580000       0.68170000
O       -0.14750000       0.02660000       0.36960000
C        1.77410000      -1.55180000       1.13960000
N        3.06480000      -1.30230000       1.28680000
O        3.26100000       0.04110000       0.92500000
H       -0.70700000       2.02110000       0.33280000
H       -0.15250000       1.35640000      -1.22200000
H        1.98280000       2.27690000      -0.74870000
H        1.56600000       2.60850000       0.93710000
H        1.40570000      -2.54040000       1.36880000
