14
Properties=species:S:1:pos:R:3 gdb_127524=T pbc="F F F"
C       -0.14700000       1.41080000      -0.03780000
N       -0.03550000      -0.03520000       0.02810000
N       -0.12610000      -0.73740000      -1.12110000
C       -0.00860000      -1.99180000      -0.68650000
O       -0.04540000      -3.01480000      -1.54290000
N        0.14730000      -2.14040000       0.64010000
C        0.12530000      -0.88100000       1.07960000
C        0.25550000      -0.45740000       2.48340000
O        0.39360000      -1.22390000       3.40380000
H        0.08300000       1.84680000       0.93290000
H        0.55820000       1.78630000      -0.78170000
H       -1.16040000       1.69320000      -0.33430000
H        0.05870000      -3.82000000      -1.02060000
H        0.21690000       0.63960000       2.64840000
