17
Properties=species:S:1:pos:R:3 gdb_38945=T pbc="F F F"
C        0.01150000       1.57980000       0.07780000
C        1.52550000       1.79780000      -0.02860000
O        2.03110000       0.82280000       0.94370000
C        1.57110000      -0.16620000      -0.00520000
C        1.96110000       0.80470000      -1.14410000
O        1.20420000       0.75280000      -2.33190000
C        0.37550000      -0.38950000      -2.35480000
O       -0.53320000      -0.43360000      -1.28050000
C        0.02750000       0.02050000      -0.04820000
H       -0.36310000       1.92620000       1.04280000
H       -0.56590000       2.03070000      -0.73030000
H        1.94450000       2.79630000       0.08380000
H        1.98940000      -1.16110000       0.13810000
H        3.03310000       0.83820000      -1.35020000
H       -0.21060000      -0.34510000      -3.27480000
H        1.00370000      -1.29670000      -2.35660000
H       -0.50990000      -0.49150000       0.75040000
