17
Properties=species:S:1:pos:R:3 gdb_128685=T pbc="F F F"
C       -0.06500000       1.36810000       0.02570000
O       -0.02420000      -0.05500000       0.02270000
C       -1.22160000      -0.66940000       0.03990000
N       -2.37310000      -0.02240000       0.04690000
N       -3.30670000      -1.03430000       0.02650000
C       -2.74290000      -2.26490000       0.03160000
N       -3.47100000      -3.44790000       0.09980000
C       -1.37180000      -2.08340000       0.02500000
N       -0.42090000      -3.13950000      -0.02080000
H        0.97420000       1.70020000       0.00500000
H       -0.60180000       1.74700000      -0.85040000
H       -0.56430000       1.74460000       0.92490000
H       -4.26810000      -0.80390000       0.20260000
H       -4.21450000      -3.50720000      -0.58630000
H       -2.83540000      -4.23090000      -0.01440000
H        0.14140000      -3.16770000       0.82520000
H        0.23180000      -3.00900000      -0.78830000
