18
Properties=species:S:1:pos:R:3 gdb_20027=T pbc="F F F"
C        0.04690000       1.30580000       0.01500000
O       -0.45280000       0.07990000      -0.48230000
C        0.44550000      -0.56950000      -1.32490000
C        1.53850000      -1.41570000      -0.72520000
C        0.34180000      -2.06500000      -1.40430000
C       -0.66760000      -2.78960000      -0.58000000
C       -1.68240000      -3.66100000      -1.18440000
O       -0.54040000      -4.21690000      -0.52970000
H        0.96380000       1.16140000       0.60380000
H        0.26620000       2.01170000      -0.80030000
H       -0.72870000       1.73360000       0.65430000
H        0.66740000      -0.02480000      -2.24450000
H        2.50580000      -1.46260000      -1.21270000
H        1.56860000      -1.47390000       0.35800000
H        0.51600000      -2.50960000      -2.37960000
H       -0.90190000      -2.32660000       0.37680000
H       -2.63610000      -3.81530000      -0.68100000
H       -1.70710000      -3.78530000      -2.26680000
