19
Properties=species:S:1:pos:R:3 gdb_92221=T pbc="F F F"
O        0.10710000       1.42970000      -0.10640000
C        0.05870000       0.01420000      -0.02870000
C        0.69420000      -0.55240000       1.27780000
C       -0.54810000      -0.89020000       2.09710000
O       -1.31850000       0.34970000       2.21110000
C       -2.26070000       0.16780000       1.13090000
C       -2.88750000      -1.20420000       1.45250000
C       -1.45370000      -1.67570000       1.11670000
C       -1.38240000      -0.53200000       0.04430000
H       -0.24400000       1.75030000       0.73370000
H        0.57880000      -0.34310000      -0.92140000
H        1.28500000      -1.45570000       1.08390000
H        1.34250000       0.18640000       1.75550000
H       -0.38880000      -1.31540000       3.08960000
H       -2.82690000       1.08430000       0.97340000
H       -3.27190000      -1.34710000       2.46510000
H       -3.61530000      -1.53100000       0.70690000
H       -1.18730000      -2.71180000       0.91120000
H       -1.89310000      -0.71650000      -0.89990000
