12
Properties=species:S:1:pos:R:3 gdb_404=T pbc="F F F"
N       -0.08880000       1.43120000      -0.00070000
C       -0.01960000      -0.00850000      -0.00580000
C       -0.46910000      -0.71190000       1.26300000
C       -1.34410000      -0.74970000       0.04660000
C        1.05670000      -0.61950000      -0.76120000
N        1.93220000      -1.06000000      -1.37730000
H        0.76650000       1.82770000       0.37840000
H       -0.18680000       1.78650000      -0.94770000
H        0.05650000      -1.61360000       1.55230000
H       -0.75380000      -0.05210000       2.07350000
H       -2.22200000      -0.11540000       0.03180000
H       -1.42420000      -1.67770000      -0.50630000
