17
Properties=species:S:1:pos:R:3 gdb_7655=T pbc="F F F"
N        0.36820000       0.96930000       0.13020000
C       -0.10340000      -0.18090000      -0.41540000
O        0.56680000      -0.83100000      -1.21020000
C       -1.49360000      -0.60550000       0.01540000
C       -2.40230000      -0.97800000      -1.20250000
C       -2.08030000      -2.48720000      -0.96950000
O       -1.12390000      -3.02700000      -1.83600000
C       -1.54570000      -2.10850000       0.44700000
H        1.28800000       1.28460000      -0.13300000
H       -0.16700000       1.51580000       0.78060000
H       -1.92190000       0.10610000       0.72560000
H       -3.44880000      -0.72890000      -1.00890000
H       -2.10850000      -0.58410000      -2.17750000
H       -2.93780000      -3.16480000      -0.98850000
H       -0.36210000      -2.42070000      -1.81660000
H       -0.59950000      -2.57540000       0.72810000
H       -2.28120000      -2.26960000       1.23930000
