15
Properties=species:S:1:pos:R:3 gdb_20376=T pbc="F F F"
C       -0.12390000       1.43950000      -0.11080000
C        1.27900000       0.91970000       0.09480000
C        0.11820000      -0.03460000       0.05690000
N       -0.30240000      -0.69260000       1.26290000
N       -0.26170000      -0.11100000       2.45400000
C       -0.73110000      -1.05280000       3.27870000
C       -1.04190000      -2.18880000       2.52550000
N       -0.76060000      -1.93840000       1.24230000
H       -0.58550000       1.94990000       0.72580000
H       -0.41960000       1.79150000      -1.09250000
H        1.96720000       0.90720000      -0.74260000
H        1.72890000       1.09240000       1.06510000
H       -0.00610000      -0.70280000      -0.78350000
H       -0.81800000      -0.86870000       4.33740000
H       -1.44010000      -3.14340000       2.82920000
