12
Properties=species:S:1:pos:R:3 gdb_123284=T pbc="F F F"
C        0.05120000      -3.75340000      -0.01870000
C        0.02740000      -2.54550000      -0.01170000
C        0.00030000      -1.18820000      -0.00380000
C       -0.01970000       0.02380000       0.00320000
C       -0.01090000       1.43190000       0.01100000
N       -1.13300000       2.17630000       0.02940000
N       -0.66790000       3.41140000       0.03040000
N        0.65150000       3.56480000       0.01440000
C        1.09670000       2.31320000       0.00180000
H        0.07210000      -4.81490000      -0.02490000
H       -1.28980000       4.20460000       0.04270000
H        2.15010000       2.08720000      -0.01290000
