20
Properties=species:S:1:pos:R:3 gdb_108689=T pbc="F F F"
C       -0.27320000       1.55510000      -0.11130000
C        0.04740000       0.05550000       0.03600000
C        0.79380000      -0.50300000      -1.13900000
C        2.09570000      -0.90000000      -1.23570000
C        2.35300000      -1.41240000      -2.64170000
C        1.09170000      -0.94560000      -3.40780000
N        0.12550000      -0.68670000      -2.32680000
C        3.08570000      -0.92500000      -0.19580000
O        4.23300000      -1.31600000      -0.34390000
H        0.64600000       2.14000000      -0.20690000
H       -0.89130000       1.75660000      -0.99230000
H       -0.81930000       1.91580000       0.76470000
H        0.62970000      -0.10470000       0.94550000
H       -0.88630000      -0.50870000       0.15460000
H        3.27720000      -1.02030000      -3.07230000
H        2.44160000      -2.50580000      -2.64630000
H        1.28950000      -0.02420000      -3.97350000
H        0.70460000      -1.69400000      -4.10410000
H       -0.69670000      -0.13650000      -2.52300000
H        2.74860000      -0.54570000       0.79610000
