22
Properties=species:S:1:pos:R:3 gdb_109310=T pbc="F F F"
C       -0.15120000       1.70530000      -0.12370000
C       -0.05090000       0.17870000       0.06280000
C       -1.39050000      -0.50560000       0.04920000
C       -2.03080000      -0.98690000      -1.02140000
C       -3.37220000      -1.59350000      -0.68640000
C       -3.60120000      -1.15470000       0.78220000
C       -2.21850000      -0.72540000       1.28040000
C       -1.61400000      -1.23030000       2.54710000
N       -2.15050000       0.13880000       2.47200000
H        0.83940000       2.16960000      -0.08570000
H       -0.60540000       1.94370000      -1.08990000
H       -0.77110000       2.17000000       0.64990000
H        0.57610000      -0.23500000      -0.73430000
H        0.47400000      -0.03560000       1.00300000
H       -1.62790000      -0.98390000      -2.02930000
H       -4.17000000      -1.25290000      -1.35630000
H       -3.34000000      -2.68770000      -0.78340000
H       -4.26740000      -0.28710000       0.82220000
H       -4.04830000      -1.93720000       1.40010000
H       -2.18390000      -1.91110000       3.17480000
H       -0.53670000      -1.37170000       2.59400000
H       -1.38430000       0.80280000       2.38750000
