15
Properties=species:S:1:pos:R:3 gdb_37541=T pbc="F F F"
N       -0.08010000       1.55770000      -0.02650000
C        1.29550000       1.83600000      -0.14330000
N        2.07560000       0.89300000      -0.55680000
C        1.11380000      -0.14300000      -0.81370000
C       -0.14120000       0.09560000       0.01260000
C       -0.64010000      -0.87180000      -1.08310000
C        0.29040000      -0.28690000      -2.16700000
O        0.89240000      -1.56210000      -2.53340000
C        0.76460000      -1.64490000      -1.09780000
H       -0.61240000       2.11000000       0.63080000
H        1.64410000       2.84140000       0.07520000
H       -0.16770000      -0.29560000       1.03760000
H       -1.61320000      -1.33720000      -1.23520000
H        0.09410000       0.44480000      -2.94740000
H        1.05990000      -2.56070000      -0.58690000
