16
Properties=species:S:1:pos:R:3 gdb_69290=T pbc="F F F"
C        0.00110000       1.50890000       0.00480000
C        0.00810000       0.00240000       0.01940000
C        0.31030000      -0.75890000       1.25620000
N        1.32350000      -0.68880000       0.16040000
C        1.16980000      -1.80190000      -0.71890000
N        0.11360000      -1.91010000      -1.42660000
C       -0.73790000      -0.76060000      -1.08400000
C        2.24610000      -2.75240000      -0.78250000
N        3.11980000      -3.50850000      -0.80850000
H        0.69210000       1.91070000       0.74980000
H        0.29720000       1.88940000      -0.97810000
H       -1.00200000       1.88860000       0.22760000
H        0.60020000      -0.22800000       2.15740000
H       -0.17470000      -1.71800000       1.41860000
H       -1.73190000      -1.11610000      -0.79230000
H       -0.86940000      -0.13700000      -1.97710000
