21
Properties=species:S:1:pos:R:3 gdb_108188=T pbc="F F F"
O       -0.07030000       1.41790000       0.03510000
C       -0.00910000      -0.00430000       0.00450000
C       -1.42520000      -0.53470000       0.02860000
C       -2.31130000      -0.12760000      -1.20230000
C       -3.49610000      -1.13760000      -1.13520000
C       -3.14980000      -1.99380000       0.13050000
C       -1.61110000      -2.07210000       0.00110000
C       -3.27160000      -1.05780000       1.32380000
C       -2.25720000      -0.19060000       1.25950000
H        0.82880000       1.75810000       0.04530000
H        0.50400000      -0.35830000      -0.90510000
H        0.54890000      -0.39310000       0.87160000
H       -2.62610000       0.91470000      -1.13960000
H       -1.74030000      -0.24470000      -2.12980000
H       -4.46830000      -0.64790000      -1.04110000
H       -3.53030000      -1.77090000      -2.02730000
H       -3.69220000      -2.93760000       0.19800000
H       -1.27420000      -2.53270000      -0.93490000
H       -1.13790000      -2.57190000       0.85070000
H       -4.10810000      -1.04230000       2.01200000
H       -2.08170000       0.68410000       1.87240000
