25
Properties=species:S:1:pos:R:3 gdb_118845=T pbc="F F F"
C       -0.12810000       1.53320000       0.40840000
C       -0.23570000       0.00780000       0.47870000
C       -1.23590000      -0.56120000      -0.53990000
C       -1.40940000      -2.06790000      -0.43280000
C       -0.22650000      -2.89690000      -0.89740000
O       -1.99760000      -2.53000000       0.80070000
C       -2.73860000      -2.71420000      -0.41440000
C       -4.08400000      -2.03580000      -0.51630000
C       -5.13720000      -2.74580000       0.34480000
H        0.58410000       1.91650000       1.14570000
H        0.20750000       1.86390000      -0.58120000
H       -1.09620000       2.00830000       0.60310000
H        0.75590000      -0.43220000       0.31890000
H       -0.55260000      -0.29990000       1.48180000
H       -2.19850000      -0.06240000      -0.39560000
H       -0.90770000      -0.31660000      -1.55920000
H        0.67700000      -2.64730000      -0.33230000
H       -0.42580000      -3.96210000      -0.75750000
H       -0.01890000      -2.71680000      -1.95800000
H       -2.76050000      -3.75750000      -0.74600000
H       -4.00590000      -0.99010000      -0.20700000
H       -4.39750000      -2.03770000      -1.56860000
H       -6.10940000      -2.25020000       0.26710000
H       -5.26640000      -3.78840000       0.03450000
H       -4.83520000      -2.74470000       1.39630000
