20
Properties=species:S:1:pos:R:3 gdb_95002=T pbc="F F F"
C       -0.18010000       1.56960000       0.01190000
C        0.00630000       0.05270000      -0.05080000
C        0.77150000      -0.40730000      -1.30040000
O        2.17700000      -0.30130000      -1.10360000
C        2.56200000      -0.73000000       0.17050000
C        1.58910000      -1.63290000       1.00480000
C        2.32610000      -1.15540000       2.27110000
C        2.09210000       0.09550000       1.39990000
N        0.66640000      -0.42400000       1.18850000
H        0.77290000       2.09110000      -0.12280000
H       -0.85880000       1.90560000      -0.77800000
H       -0.60130000       1.86320000       0.97750000
H       -0.98480000      -0.41940000      -0.06900000
H        0.51710000      -1.45360000      -1.52780000
H        0.52810000       0.19670000      -2.17940000
H        3.61830000      -1.01260000       0.11990000
H        1.20100000      -2.62940000       0.78780000
H        1.73500000      -1.19630000       3.18540000
H        3.35800000      -1.48540000       2.40500000
H        2.29350000       1.13870000       1.64480000
