11
Properties=species:S:1:pos:R:3 gdb_4255=T pbc="F F F"
N       -0.06660000       1.27500000      -0.38530000
C       -0.00450000       0.11850000       0.09070000
O        1.20300000      -0.51790000       0.33540000
C        1.22040000      -1.76560000       0.84960000
C        0.11950000      -2.45850000       1.15130000
C       -1.18220000      -1.85590000       0.92160000
O       -2.25650000      -2.33020000       1.13260000
O       -1.13380000      -0.55960000       0.38630000
H        0.86540000       1.64670000      -0.55210000
H        2.23510000      -2.12130000       0.98160000
H        0.16240000      -3.45590000       1.56210000
