15
Properties=species:S:1:pos:R:3 gdb_130029=T pbc="F F F"
N        0.18000000       1.29300000      -0.31290000
C        0.02810000      -0.06230000      -0.11410000
N       -1.11260000      -0.70550000       0.07160000
C       -0.69470000      -1.98400000       0.29780000
N        0.60670000      -2.18160000       0.25780000
N        1.07390000      -0.91690000      -0.00650000
C        2.49920000      -0.65110000      -0.07140000
C        2.90930000      -0.02090000      -1.32610000
C        3.23110000       0.52970000      -2.34460000
H        0.90480000       1.54350000      -0.97410000
H       -0.70370000       1.73560000      -0.52360000
H       -1.38050000      -2.79550000       0.49210000
H        2.79840000      -0.01610000       0.77280000
H        2.98900000      -1.61980000       0.05460000
H        3.53310000       0.98910000      -3.25400000
