18
Properties=species:S:1:pos:R:3 gdb_82012=T pbc="F F F"
N       -0.00690000       1.47850000       0.17570000
C       -0.05830000       0.05570000      -0.00710000
C       -1.42810000      -0.61730000       0.02050000
C       -2.25370000      -0.27460000      -1.18660000
C       -1.16800000      -1.30270000      -1.32340000
C        0.19500000      -0.60460000      -1.46470000
N        0.28110000       0.37790000      -2.54060000
C        1.31730000      -1.54510000      -1.45250000
N        2.23060000      -2.25660000      -1.45020000
H        0.95030000       1.81000000       0.23530000
H       -0.44540000       1.95640000      -0.60490000
H        0.61550000      -0.41870000       0.70920000
H       -1.87830000      -1.03690000       0.91140000
H       -3.26030000      -0.67950000      -1.17460000
H       -2.16090000       0.68160000      -1.68910000
H       -1.35100000      -2.32920000      -1.61200000
H        1.21010000       0.79000000      -2.56320000
H        0.14050000      -0.07530000      -3.43980000
