17
Properties=species:S:1:pos:R:3 gdb_69929=T pbc="F F F"
C       -0.05050000       1.53690000       0.04610000
C        0.09850000       0.04880000       0.00430000
N       -0.80540000      -0.86160000       0.73050000
C        0.64810000      -0.93560000       1.00070000
C        1.25770000      -1.79070000      -0.11680000
O        0.59540000      -3.02700000      -0.42950000
C       -0.23730000      -2.72250000      -1.46600000
N       -0.23750000      -1.56210000      -1.98300000
C        0.69080000      -0.78710000      -1.16910000
H        0.85130000       2.03390000      -0.32700000
H       -0.89240000       1.86300000      -0.57500000
H       -0.23010000       1.88760000       1.06850000
H       -1.22390000      -0.32970000       1.49280000
H        1.03980000      -0.78010000       1.99910000
H        2.33320000      -1.95810000      -0.05480000
H       -0.84550000      -3.55710000      -1.79640000
H        1.40940000      -0.22700000      -1.77150000
