20
Properties=species:S:1:pos:R:3 gdb_109657=T pbc="F F F"
C       -0.58450000       0.63360000      -2.07850000
N       -0.13510000      -0.31110000      -1.06260000
C        1.26580000      -0.41270000      -0.71200000
C        2.35990000       0.41420000      -1.35570000
O        2.63580000      -0.02360000      -2.67960000
C        0.26920000       0.16350000       0.27520000
C        0.26740000       1.61670000       0.69890000
C       -0.17910000      -0.79150000       1.34210000
O       -0.34360000      -0.49770000       2.49930000
H       -0.12740000       1.63030000      -2.03460000
H       -0.36300000       0.20640000      -3.05980000
H       -1.66780000       0.75300000      -1.98610000
H        1.58470000      -1.44580000      -0.54210000
H        2.08350000       1.46500000      -1.45130000
H        3.25820000       0.37060000      -0.72040000
H        2.91210000      -0.94520000      -2.63760000
H        0.71510000       2.28600000      -0.03510000
H       -0.75730000       1.95290000       0.88700000
H        0.81370000       1.71720000       1.64000000
H       -0.35080000      -1.82270000       0.96110000
