21
Properties=species:S:1:pos:R:3 gdb_120673=T pbc="F F F"
O       -0.13210000       1.42150000       0.03730000
C       -0.10720000       0.00800000       0.16340000
C       -1.40660000      -0.53270000      -0.42640000
C       -1.46610000      -2.03750000      -0.38000000
O       -1.66860000      -2.63630000       0.91770000
C       -2.68210000      -2.79160000      -0.05870000
C       -4.12630000      -2.29760000       0.07200000
C       -4.54490000      -3.47970000      -0.85470000
C       -3.14920000      -4.13510000      -0.62570000
H        0.65540000       1.77440000       0.46130000
H        0.75360000      -0.42570000      -0.37240000
H       -0.03150000      -0.30450000       1.21530000
H       -2.24880000      -0.10440000       0.12550000
H       -1.48970000      -0.19500000      -1.46720000
H       -0.70680000      -2.55180000      -0.97510000
H       -4.49400000      -2.41900000       1.09520000
H       -4.35140000      -1.28270000      -0.26420000
H       -5.41490000      -4.06020000      -0.54420000
H       -4.68770000      -3.16150000      -1.88990000
H       -2.61950000      -4.53080000      -1.49580000
H       -3.17340000      -4.90380000       0.15270000
