20
Properties=species:S:1:pos:R:3 gdb_124445=T pbc="F F F"
C       -0.24900000       1.52520000      -0.13600000
C        0.01070000       0.00920000       0.00230000
C        0.89500000      -0.26020000       1.23250000
C       -1.33550000      -0.73250000       0.15030000
C        0.68230000      -0.47410000      -1.26100000
N        0.18090000      -0.39000000      -2.48470000
C        1.14710000      -0.95190000      -3.25970000
N        2.21550000      -1.38070000      -2.60980000
N        1.89680000      -1.06460000      -1.32950000
H        0.69040000       2.08120000      -0.21900000
H       -0.84370000       1.73000000      -1.02900000
H       -0.78970000       1.89730000       0.74040000
H        0.39300000       0.09570000       2.13670000
H        1.08860000      -1.33040000       1.36660000
H        1.85510000       0.26370000       1.16480000
H       -1.95460000      -0.57920000      -0.73640000
H       -1.18190000      -1.80930000       0.27490000
H       -1.87700000      -0.36130000       1.02670000
H        1.06150000      -1.04770000      -4.33200000
H        2.54260000      -1.27970000      -0.58890000
