17
Properties=species:S:1:pos:R:3 gdb_49688=T pbc="F F F"
O       -0.02850000      -0.00780000      -0.23260000
C       -0.00690000       1.13720000       0.15160000
C        1.21270000       1.98250000       0.11580000
C        1.23790000       3.46580000      -0.18150000
C        0.00710000       4.19820000       0.36500000
C        0.35990000       3.69230000       1.79980000
C        1.60020000       2.97290000       1.22580000
C        2.86380000       2.87960000       1.87180000
C        3.92270000       2.81500000       2.44090000
H       -0.92400000       1.61230000       0.55860000
H        2.07080000       1.44720000      -0.27850000
H        1.90900000       3.83950000      -0.94530000
H        0.10630000       5.28180000       0.28170000
H       -0.96150000       3.90930000      -0.05070000
H        0.65140000       4.50850000       2.46220000
H       -0.37050000       3.06770000       2.31920000
H        4.85890000       2.75220000       2.93770000
