20
Properties=species:S:1:pos:R:3 gdb_110955=T pbc="F F F"
C       -0.18610000       1.54950000       0.06500000
C        0.18130000       0.06840000      -0.08410000
C        0.83530000      -0.49680000       1.17050000
C       -0.06190000      -0.86600000       2.39410000
N       -0.54650000      -2.05980000       1.57330000
C        0.97230000      -2.05300000       1.31980000
C        1.65660000      -3.04170000       0.42810000
C        1.07490000      -1.80530000       2.84390000
O        1.59080000      -2.25080000       3.82350000
H        0.69240000       2.15840000       0.30630000
H       -0.61810000       1.94150000      -0.86070000
H       -0.92110000       1.69760000       0.86320000
H       -0.70710000      -0.51840000      -0.32930000
H        0.88240000      -0.04840000      -0.92100000
H        1.74190000       0.05810000       1.43380000
H       -0.75060000      -0.24140000       2.95910000
H       -0.81300000      -2.83900000       2.18270000
H        1.25450000      -3.00000000      -0.58860000
H        2.72950000      -2.82950000       0.38470000
H        1.53300000      -4.06150000       0.80670000
