23
Properties=species:S:1:pos:R:3 gdb_72883=T pbc="F F F"
C       -0.49540000       1.52900000       0.01470000
C        0.01230000       0.10430000      -0.00120000
C       -1.04100000      -1.03760000       0.12530000
C       -0.26160000      -1.64510000       1.32990000
C        0.83010000      -0.55430000       1.18290000
C        1.94440000      -0.88210000       0.18250000
C        3.41980000      -0.76610000       0.43150000
C        2.80050000      -2.11540000       0.14630000
C        1.17440000      -0.23630000      -0.98210000
H        0.32810000       2.24700000       0.10260000
H       -1.04020000       1.76180000      -0.90930000
H       -1.18020000       1.70080000       0.85310000
H       -2.04070000      -0.67900000       0.38650000
H       -1.13300000      -1.67940000      -0.75590000
H       -0.81280000      -1.57860000       2.27150000
H        0.08730000      -2.67470000       1.21170000
H        1.12320000      -0.00780000       2.08290000
H        4.03360000      -0.30990000      -0.33960000
H        3.75360000      -0.56240000       1.44440000
H        2.71780000      -2.82230000       0.96650000
H        2.99570000      -2.57500000      -0.81770000
H        0.90710000      -0.89660000      -1.81430000
H        1.66810000       0.65130000      -1.39240000
