22
Properties=species:S:1:pos:R:3 gdb_94057=T pbc="F F F"
C       -0.02250000       1.57140000       0.01070000
C        0.01710000       0.04080000       0.00210000
C        0.69370000      -0.50260000      -1.26770000
C        0.75460000      -2.03490000      -1.28960000
C        1.46250000      -2.57540000      -0.02570000
C        0.77890000      -2.04860000       1.25710000
C        0.71780000      -0.51610000       1.25290000
C        1.51480000      -4.03820000      -0.03410000
N        1.54290000      -5.19390000      -0.04060000
H        0.99080000       1.99010000       0.00330000
H       -0.54890000       1.96070000      -0.86710000
H       -0.53200000       1.95120000       0.90250000
H       -1.01970000      -0.32860000       0.01000000
H        0.16380000      -0.14550000      -2.15810000
H        1.71360000      -0.09600000      -1.33160000
H       -0.25990000      -2.45020000      -1.32790000
H        1.27460000      -2.38940000      -2.18500000
H        2.50150000      -2.21670000      -0.03370000
H       -0.23470000      -2.46440000       1.31030000
H        1.31580000      -2.41260000       2.13850000
H        1.73880000      -0.11020000       1.30160000
H        0.20500000      -0.16870000       2.15700000
