25
Properties=species:S:1:pos:R:3 gdb_117835=T pbc="F F F"
C       -1.43880000       0.03390000       0.29360000
C        0.06290000       0.19640000       0.03260000
C        0.64470000      -0.57290000      -1.17690000
O        2.06650000      -0.42010000      -1.17010000
C        0.37450000      -2.08550000      -1.13590000
C        0.91740000      -2.79210000       0.11030000
C        0.12330000      -0.00250000      -2.50490000
O        0.57400000       1.33750000      -2.60250000
C        0.28090000       1.94000000      -3.84100000
H       -2.04380000       0.35760000      -0.55980000
H       -1.70740000      -1.00350000       0.51690000
H       -1.74230000       0.64110000       1.15220000
H        0.29000000       1.25720000      -0.11940000
H        0.62850000      -0.11680000       0.91560000
H        2.23390000       0.48380000      -1.46440000
H       -0.70340000      -2.26250000      -1.23050000
H        0.84400000      -2.52250000      -2.02490000
H        0.79460000      -3.87570000       0.01950000
H        1.98120000      -2.57740000       0.23780000
H        0.39680000      -2.47820000       1.02040000
H        0.52970000      -0.59650000      -3.33840000
H       -0.97550000      -0.04480000      -2.56130000
H        0.68070000       2.95670000      -3.81440000
H        0.74410000       1.39520000      -4.67810000
H       -0.80390000       1.98910000      -4.02140000
