19
Properties=species:S:1:pos:R:3 gdb_73104=T pbc="F F F"
C       -0.24350000       1.49270000       0.21180000
C        0.07440000       0.02440000      -0.01640000
C       -1.13780000      -0.95050000       0.20180000
C       -0.49750000      -1.42170000       1.53950000
C        0.83080000      -0.72820000       1.13430000
N        1.75210000      -1.55610000       0.38690000
C        1.84660000      -1.21440000      -0.95350000
O        2.59100000      -1.70320000      -1.77340000
N        0.92300000      -0.19620000      -1.16880000
H        0.67470000       2.08590000       0.24800000
H       -0.87190000       1.88320000      -0.59680000
H       -0.78970000       1.63290000       1.15040000
H       -2.12420000      -0.48520000       0.26810000
H       -1.16900000      -1.73570000      -0.55640000
H       -0.95310000      -0.95240000       2.41590000
H       -0.43600000      -2.49870000       1.70540000
H        1.33050000      -0.12110000       1.89780000
H        2.51500000      -2.05700000       0.80950000
H        0.59300000      -0.06340000      -2.11160000
