19
Properties=species:S:1:pos:R:3 gdb_79832=T pbc="F F F"
C       -0.05200000       1.53920000      -0.00520000
C        0.01780000       0.04330000       0.00880000
C        0.01200000      -0.90700000      -1.13310000
O        1.10990000      -1.79720000      -1.14160000
C        1.82740000      -1.56690000       0.07910000
C        0.81200000      -0.88030000       0.98840000
C       -0.47280000      -1.76320000       1.14050000
O       -1.24500000      -1.44090000       2.28130000
C       -1.06150000      -1.05420000      -0.06630000
H        0.93560000       1.98370000      -0.17800000
H       -0.71620000       1.89280000      -0.80080000
H       -0.43480000       1.92880000       0.94460000
H       -0.29730000      -0.60010000      -2.12560000
H        2.17050000      -2.53500000       0.46090000
H        2.70600000      -0.93060000      -0.10770000
H        1.20520000      -0.45580000       1.91240000
H       -0.31970000      -2.85060000       1.06140000
H       -0.81200000      -1.82810000       3.04910000
H       -2.12090000      -0.96980000      -0.28390000
