17
Properties=species:S:1:pos:R:3 gdb_28799=T pbc="F F F"
O        0.01810000       1.34520000       0.24580000
C        0.00310000       0.00360000       0.04360000
C       -0.12590000      -0.81680000      -1.05290000
N       -0.07270000      -2.14990000      -0.66550000
C        0.08060000      -2.11330000       0.63140000
C        0.28020000      -3.09000000       1.75060000
C        0.06840000      -2.19230000       3.00480000
C        0.36360000      -0.73590000       2.54640000
N        0.12380000      -0.83180000       1.11870000
H       -0.10350000       1.78010000      -0.60380000
H       -0.26420000      -0.52830000      -2.08410000
H       -0.41920000      -3.92870000       1.71650000
H        1.29260000      -3.51310000       1.72860000
H       -0.97400000      -2.25860000       3.32870000
H        0.69610000      -2.48500000       3.84860000
H       -0.29410000      -0.00090000       3.01760000
H        1.40070000      -0.43970000       2.74620000
