16
Properties=species:S:1:pos:R:3 gdb_9192=T pbc="F F F"
C       -0.06420000       1.35730000      -0.07750000
O        0.02640000      -0.06940000       0.03300000
C        0.67110000      -0.52390000       1.12460000
O        1.15010000       0.19320000       1.96760000
C        0.70520000      -2.03820000       1.13610000
C        1.44200000      -2.58640000       2.36860000
C        1.47750000      -4.04330000       2.38680000
C        1.49390000      -5.24500000       2.37910000
H        0.93200000       1.80490000      -0.11690000
H       -0.60630000       1.54900000      -1.00340000
H       -0.60310000       1.77660000       0.77590000
H       -0.32400000      -2.41050000       1.09860000
H        1.17910000      -2.38380000       0.21130000
H        2.46080000      -2.18370000       2.38990000
H        0.95850000      -2.20920000       3.27650000
H        1.51780000      -6.30630000       2.38700000
