20
Properties=species:S:1:pos:R:3 gdb_99760=T pbc="F F F"
C        0.48900000       0.93270000       0.50090000
O        0.10780000      -0.36890000       0.08630000
C       -1.29250000      -0.55600000      -0.09010000
C       -1.43030000      -1.87690000      -0.86860000
C       -0.97420000      -1.73510000      -2.31990000
O       -0.69690000      -2.91000000      -0.20090000
C       -2.01860000      -0.51460000       1.27530000
N       -1.96430000      -1.66180000       1.99520000
O       -2.55580000       0.50880000       1.66330000
H        1.57700000       0.92440000       0.59830000
H        0.19830000       1.68470000      -0.24640000
H        0.03600000       1.20690000       1.46040000
H       -1.71950000       0.27200000      -0.67210000
H       -2.47770000      -2.19520000      -0.83830000
H        0.05040000      -1.35380000      -2.36040000
H       -1.00810000      -2.70780000      -2.81670000
H       -1.62080000      -1.04110000      -2.86650000
H        0.18940000      -2.54710000      -0.06670000
H       -1.51580000      -2.48150000       1.60970000
H       -2.39670000      -1.67950000       2.90420000
