17
Properties=species:S:1:pos:R:3 gdb_46569=T pbc="F F F"
O       -0.20780000      -0.06090000      -0.17310000
C       -0.04640000       1.12010000      -0.04030000
C       -1.22370000       2.16550000      -0.01700000
O       -0.69570000       3.46760000       0.29440000
C        0.57980000       3.18730000       0.77840000
C        1.97150000       3.85880000       0.83440000
C        2.15720000       2.34370000       1.26190000
C        0.90240000       2.51110000       2.15450000
C        1.20210000       1.98650000       0.07040000
H       -1.72460000       2.20240000      -0.98980000
H       -1.95490000       1.84770000       0.73680000
H        2.41370000       4.15430000      -0.11980000
H        2.14600000       4.59960000       1.61810000
H        3.09610000       1.86410000       1.52530000
H        0.99300000       3.17620000       3.01540000
H        0.36220000       1.59560000       2.40770000
H        1.60030000       2.18540000      -0.93200000
