13
Properties=species:S:1:pos:R:3 gdb_4388=T pbc="F F F"
C        0.05860000       1.49010000       0.02260000
C       -0.07100000       0.00390000       0.00580000
C       -1.21770000      -0.70570000      -0.15650000
C       -1.09540000      -2.12150000      -0.13760000
N        0.01970000      -2.77460000       0.02140000
C        1.18740000      -2.06470000       0.18660000
O        2.28310000      -2.50830000       0.34260000
O        1.09180000      -0.62740000       0.17170000
H        0.73940000       1.81600000      -0.77060000
H       -0.91190000       1.96870000      -0.11570000
H        0.49160000       1.81790000       0.97330000
H       -2.17080000      -0.21550000      -0.29250000
H       -1.99130000      -2.73020000      -0.26430000
