16
Properties=species:S:1:pos:R:3 gdb_55315=T pbc="F F F"
O       -0.29080000      -0.08630000       0.00440000
C       -0.05210000       1.22930000      -0.04870000
O        1.04820000       1.70780000      -0.12680000
C       -1.31780000       2.07820000       0.05550000
N       -2.56130000       1.26350000       0.17390000
H       -3.20750000       1.36430000      -0.60030000
H       -1.26610000      -0.16480000       0.10110000
C       -2.97850000       1.97360000       1.42340000
C       -1.61100000       2.66130000       1.45230000
C       -0.69340000       2.98620000       2.54040000
O       -1.40580000       4.00160000       1.80300000
H       -1.31170000       2.84550000      -0.72420000
H       -3.79330000       2.69170000       1.28200000
H       -3.22650000       1.30070000       2.24920000
H       -1.01200000       2.85530000       3.57290000
H        0.37780000       2.94910000       2.35620000
