19
Properties=species:S:1:pos:R:3 gdb_96999=T pbc="F F F"
C       -0.04110000       1.42990000      -0.00820000
N       -0.00700000      -0.02500000       0.00320000
C        0.57090000      -0.63520000      -0.92860000
O        1.19560000      -0.06250000      -2.02680000
C        1.67780000      -1.17140000      -2.83120000
C        2.85270000      -1.79450000      -2.05600000
N        2.17460000      -2.41390000      -0.88020000
C        0.72980000      -2.13290000      -1.10690000
C        0.56900000      -2.21680000      -2.64260000
H        0.62440000       1.81200000       0.77520000
H        0.25510000       1.88060000      -0.96240000
H       -1.05320000       1.76220000       0.24500000
H        1.89570000      -0.80170000      -3.83140000
H        3.39290000      -2.52890000      -2.66370000
H        3.55810000      -1.01980000      -1.74030000
H        2.31340000      -3.41850000      -0.89100000
H        0.08420000      -2.72380000      -0.46310000
H       -0.39800000      -1.87640000      -3.01980000
H        0.81380000      -3.20040000      -3.05120000
