18
Properties=species:S:1:pos:R:3 gdb_51705=T pbc="F F F"
O       -0.73430000       0.88750000      -1.03480000
C       -0.04890000       1.07940000      -0.06040000
C        1.13140000       2.02270000      -0.01580000
C        1.29560000       2.88810000      -1.26460000
C        2.54180000       3.80630000      -1.22370000
C        2.97000000       3.92620000      -2.69380000
C        2.39900000       2.67050000      -3.36460000
O        2.63950000       2.26090000      -4.47760000
N        1.53610000       2.09960000      -2.46200000
H       -0.25220000       0.54000000       0.89130000
H        1.03040000       2.65080000       0.88050000
H        2.03010000       1.40990000       0.15090000
H        0.38330000       3.49350000      -1.37990000
H        2.32430000       4.76430000      -0.74670000
H        3.33070000       3.31780000      -0.64160000
H        2.51950000       4.79600000      -3.18550000
H        4.04850000       3.99070000      -2.84610000
H        0.86820000       1.40330000      -2.75750000
