18
Properties=species:S:1:pos:R:3 gdb_114861=T pbc="F F F"
O       -0.02980000       1.47630000       0.05980000
C        0.04000000       0.08170000      -0.13170000
C       -1.33390000      -0.56720000       0.01110000
C       -1.32860000      -2.13970000      -0.11540000
C       -2.52180000      -2.49230000       0.78720000
C       -2.58610000      -3.24480000       2.15200000
O       -2.81300000      -1.95350000       2.85700000
C       -2.46030000      -1.31930000       1.70000000
N       -1.83380000      -0.26820000       1.39780000
H       -0.51240000       1.59760000       0.88800000
H        0.43450000      -0.08840000      -1.14010000
H        0.73120000      -0.39380000       0.58490000
H       -2.00630000      -0.11530000      -0.73050000
H       -1.42350000      -2.48770000      -1.14620000
H       -0.38940000      -2.52850000       0.29540000
H       -3.46140000      -2.59310000       0.23870000
H       -3.42780000      -3.92070000       2.30640000
H       -1.64800000      -3.68650000       2.49650000
