19
Properties=species:S:1:pos:R:3 gdb_49656=T pbc="F F F"
O        0.21470000      -0.20290000      -0.18760000
C        0.07220000       0.99720000      -0.16450000
C        1.20350000       1.94270000       0.01850000
C        1.14930000       3.42640000      -0.31360000
C       -0.19160000       4.18250000      -0.30990000
C       -0.64370000       4.30020000       1.15390000
C       -1.05860000       3.08870000       1.95190000
C        0.36820000       3.57070000       2.01880000
C        1.43560000       3.01410000       1.10360000
H       -0.92470000       1.44450000      -0.35680000
H        2.13440000       1.44810000      -0.24760000
H        1.92720000       3.80080000      -0.97070000
H       -0.01450000       5.18700000      -0.70690000
H       -0.94990000       3.72880000      -0.95700000
H       -1.05590000       5.25420000       1.46440000
H       -1.67580000       3.28270000       2.82370000
H       -1.29200000       2.14950000       1.46990000
H        0.72310000       3.98840000       2.95410000
H        2.44740000       3.01940000       1.49250000
