15
Properties=species:S:1:pos:R:3 gdb_19541=T pbc="F F F"
N       -0.13430000      -1.16670000       0.00440000
C       -0.07890000      -0.00890000       0.00690000
C        0.00910000       1.39850000       0.00930000
C       -0.74130000       2.47500000       0.78610000
C        0.56990000       3.12200000       1.22980000
C        1.21480000       2.43830000      -0.00610000
C        0.53300000       3.12850000      -1.21840000
C       -0.76430000       2.47900000      -0.73890000
H       -1.64800000       2.32910000       1.35810000
H        0.62250000       4.21500000       1.27830000
H        0.92570000       2.68970000       2.16780000
H        2.26950000       2.17780000      -0.02270000
H        0.58430000       4.22170000      -1.26280000
H        0.86040000       2.70110000      -2.16900000
H       -1.68780000       2.33600000      -1.28410000
