17
Properties=species:S:1:pos:R:3 gdb_78077=T pbc="F F F"
O       -0.01190000       1.48030000       0.13650000
C       -0.06470000       0.08970000       0.00650000
C       -1.40010000      -0.66410000       0.00730000
C       -2.24960000      -0.38560000      -1.20550000
C       -2.44960000       0.91500000      -1.90830000
O       -2.11870000       2.01170000      -1.51140000
C       -1.05110000      -1.29630000      -1.35510000
C        0.25600000      -0.50350000      -1.41950000
O        0.36530000       0.44800000      -2.44460000
H       -0.82080000       1.85180000      -0.26290000
H        0.61090000      -0.33350000       0.75450000
H       -1.84120000      -1.14060000       0.87520000
H       -3.17230000      -0.96620000      -1.23030000
H       -3.01150000       0.82420000      -2.86050000
H       -1.18170000      -2.32300000      -1.67400000
H        1.12930000      -1.16770000      -1.41150000
H        0.53250000       1.29150000      -1.99710000
