16
Properties=species:S:1:pos:R:3 gdb_51994=T pbc="F F F"
N       -0.68050000       0.39930000       1.60080000
C       -0.80430000      -0.09380000       0.44940000
O       -0.48510000      -1.39680000       0.24480000
C       -0.92150000      -1.98370000      -0.98000000
C       -2.30810000      -2.60150000      -0.86220000
N       -3.03760000      -2.68570000      -1.89390000
N       -2.58910000      -3.05680000       0.43750000
C       -3.73050000      -3.70460000       0.84220000
O       -4.65520000      -4.01350000       0.12520000
H       -0.91730000       1.38910000       1.58780000
H       -1.13600000       0.41920000      -0.46280000
H       -0.93330000      -1.26350000      -1.80270000
H       -0.19120000      -2.76450000      -1.21240000
H       -3.90980000      -3.17210000      -1.68240000
H       -1.90670000      -2.81710000       1.14480000
H       -3.71020000      -3.92280000       1.92630000
