19
Properties=species:S:1:pos:R:3 gdb_105248=T pbc="F F F"
C        0.19250000       1.20490000      -0.51530000
C        0.35030000      -0.15580000       0.11270000
O        1.63500000      -0.52760000       0.66360000
C        0.51170000      -0.43170000       1.55220000
C        0.65860000       0.65610000       2.61780000
O        1.51220000       1.70760000       2.22460000
C       -0.01500000      -1.73270000       2.09110000
C        0.57910000      -3.02090000       1.72020000
O        0.84070000      -2.43230000       2.99800000
H        0.70570000       1.23280000      -1.48240000
H       -0.87000000       1.39710000      -0.70120000
H        0.58730000       1.99110000       0.12700000
H       -0.08560000      -0.97000000      -0.47080000
H       -0.32100000       1.09100000       2.84810000
H        1.02830000       0.16720000       3.53210000
H        2.23540000       1.28770000       1.73980000
H       -1.06250000      -1.70560000       2.39860000
H       -0.03430000      -3.92030000       1.73740000
H        1.42150000      -3.02520000       1.03330000
