13
Properties=species:S:1:pos:R:3 gdb_42553=T pbc="F F F"
O       -0.08690000       0.07930000       0.19880000
C       -0.10200000       1.26140000       0.10440000
C       -1.13330000       2.34240000      -0.20950000
C        0.11910000       3.08710000      -0.81170000
C        0.45760000       3.49200000       0.55530000
C       -0.98230000       3.24830000       1.06370000
C       -1.79260000       4.45550000       1.01740000
N       -2.43270000       5.41720000       0.98030000
N        1.02370000       2.19840000       0.03840000
H       -2.10300000       2.14190000      -0.65330000
H        0.39920000       3.40310000      -1.80430000
H        1.17250000       4.21460000       0.92380000
H       -1.10750000       2.74940000       2.03040000
