15
Properties=species:S:1:pos:R:3 gdb_123600=T pbc="F F F"
C       -0.02150000       1.50200000      -0.08510000
C        1.54210000       1.35550000      -0.00010000
C        1.14920000       0.14970000       0.93000000
N       -0.08110000      -0.04030000       0.01250000
C        0.65450000      -0.31930000      -1.20760000
N        0.63450000      -1.11770000      -2.24960000
N        1.72290000      -0.68130000      -2.92460000
N        2.42650000       0.33990000      -2.37600000
C        1.73780000       0.56650000      -1.27710000
H       -0.47450000       1.94240000       0.80640000
H       -0.46080000       1.91490000      -0.99490000
H        2.21420000       2.15830000       0.29450000
H        1.81490000      -0.71380000       0.97840000
H        0.81840000       0.44880000       1.92750000
H        1.99730000      -1.09690000      -3.79800000
