13
Properties=species:S:1:pos:R:3 gdb_4647=T pbc="F F F"
C        0.04070000       1.46710000      -0.05080000
C       -0.05750000      -0.01380000       0.00440000
N       -1.09990000      -0.75990000      -0.16240000
C       -0.63060000      -2.07070000      -0.00460000
C        0.70430000      -2.01880000       0.25450000
O        1.08490000      -0.71280000       0.26350000
C       -1.46020000      -3.21030000      -0.10990000
C       -2.15870000      -4.18620000      -0.19780000
H        0.73930000       1.78530000      -0.83120000
H       -0.94590000       1.87810000      -0.26460000
H        0.40040000       1.87240000       0.90040000
H        1.46510000      -2.75620000       0.44060000
H       -2.77980000      -5.04370000      -0.27650000
