20
Properties=species:S:1:pos:R:3 gdb_99675=T pbc="F F F"
C       -0.17680000       1.38910000       0.09610000
O        0.25100000       0.04690000      -0.05800000
C        0.72280000      -0.55190000       1.12560000
C       -0.36700000      -0.72490000       2.11800000
N       -1.22050000      -0.85930000       2.88560000
C        1.34280000      -1.89630000       0.76290000
C        2.64690000      -1.88070000      -0.07820000
C        3.17520000      -3.04730000       0.80140000
C        2.09920000      -2.68810000       1.86400000
H        0.63560000       2.02730000       0.47430000
H       -0.47480000       1.73900000      -0.89390000
H       -1.03370000       1.46610000       0.77870000
H        1.48980000       0.08560000       1.59900000
H        0.57460000      -2.51270000       0.28760000
H        2.55280000      -2.04460000      -1.15280000
H        3.21480000      -0.95890000       0.08390000
H        2.98270000      -4.02130000       0.34370000
H        4.22120000      -3.01190000       1.11250000
H        2.49910000      -2.02170000       2.63550000
H        1.56480000      -3.50290000       2.35540000
