21
Properties=species:S:1:pos:R:3 gdb_68794=T pbc="F F F"
C        0.02070000       1.58140000       0.05700000
C       -0.01800000       0.08000000       0.04850000
C        1.15030000      -0.77800000      -0.36740000
C        0.59160000      -0.94170000       1.02120000
C        1.40430000      -0.77020000       2.27150000
C       -0.69620000      -1.79750000       0.94920000
C       -1.30010000      -0.75390000      -0.06470000
C       -0.57480000      -3.18300000       0.53200000
C       -0.46360000      -4.32440000       0.16760000
H        1.00780000       1.95300000       0.35200000
H       -0.19770000       1.98950000      -0.93760000
H       -0.71600000       1.99890000       0.75340000
H        1.03500000      -1.56490000      -1.10960000
H        2.10610000      -0.26360000      -0.41150000
H        2.14710000       0.02590000       2.15560000
H        0.77340000      -0.51660000       3.13170000
H        1.94600000      -1.69150000       2.51790000
H       -1.23780000      -1.74650000       1.89960000
H       -2.18190000      -0.25720000       0.34760000
H       -1.54250000      -1.14040000      -1.05890000
H       -0.36810000      -5.33410000      -0.14630000
