20
Properties=species:S:1:pos:R:3 gdb_56186=T pbc="F F F"
C        0.96000000       1.02300000      -0.02680000
C        0.02570000      -0.14800000       0.07900000
N       -0.59810000      -0.41750000       1.14890000
O       -0.01710000      -0.81500000      -1.11130000
C       -0.85120000      -1.96250000      -1.20960000
C       -0.71070000      -2.49430000      -2.62470000
C        0.57450000      -3.27250000      -2.97680000
C       -0.38410000      -4.45730000      -3.21460000
O       -1.52750000      -3.66970000      -2.80730000
H        1.96490000       0.68250000      -0.29530000
H        0.62650000       1.70240000      -0.81740000
H        0.99190000       1.55190000       0.92440000
H       -1.19420000      -1.23970000       1.06560000
H       -0.54620000      -2.72900000      -0.48430000
H       -1.90050000      -1.70210000      -1.01480000
H       -0.97360000      -1.70190000      -3.33750000
H        1.11950000      -2.91610000      -3.85100000
H        1.27080000      -3.39440000      -2.14500000
H       -0.47240000      -4.78840000      -4.25620000
H       -0.24570000      -5.33560000      -2.57390000
