23
Properties=species:S:1:pos:R:3 gdb_120553=T pbc="F F F"
C        0.68360000       1.02220000      -0.35430000
C        0.06890000      -0.28240000       0.12410000
O       -1.29000000      -0.31060000      -0.27110000
C       -1.95800000      -1.48840000       0.08790000
C       -2.40900000      -1.67590000       1.56860000
C       -3.78140000      -2.15370000       1.04330000
C       -3.43930000      -1.52120000      -0.34000000
O       -3.80700000      -3.56590000       1.03600000
C       -5.00750000      -4.09870000       0.52710000
H        1.73780000       1.07680000      -0.06620000
H        0.61540000       1.10110000      -1.44310000
H        0.15930000       1.87650000       0.08340000
H        0.60510000      -1.14480000      -0.30710000
H        0.15220000      -0.36790000       1.21980000
H       -1.40640000      -2.37020000      -0.26990000
H       -1.87230000      -2.38900000       2.19690000
H       -2.48350000      -0.70920000       2.07390000
H       -4.67590000      -1.76410000       1.54940000
H       -3.82700000      -0.50240000      -0.42600000
H       -3.70260000      -2.08770000      -1.23560000
H       -4.92980000      -5.18730000       0.58370000
H       -5.87760000      -3.77280000       1.11900000
H       -5.18150000      -3.81240000      -0.52110000
