20
Properties=species:S:1:pos:R:3 gdb_56292=T pbc="F F F"
C       -0.16560000       1.41380000       0.29970000
C       -0.14970000      -0.10720000       0.32870000
O        0.53850000      -0.73200000       1.11540000
N       -0.96340000      -0.71390000      -0.58890000
C       -1.12280000      -2.15500000      -0.65630000
C       -2.45480000      -2.63890000      -0.07050000
C       -2.59510000      -4.17150000      -0.15830000
C       -3.86500000      -4.65560000       0.36790000
C       -4.92030000      -5.02870000       0.80590000
H       -0.62290000       1.77950000       1.22380000
H        0.86560000       1.77340000       0.28160000
H       -0.70820000       1.83370000      -0.55150000
H       -1.54180000      -0.13900000      -1.17870000
H       -1.02970000      -2.48150000      -1.70030000
H       -0.28540000      -2.57820000      -0.09580000
H       -2.52540000      -2.32350000       0.97520000
H       -3.29210000      -2.17050000      -0.60160000
H       -2.48880000      -4.49090000      -1.20400000
H       -1.76810000      -4.64430000       0.38750000
H       -5.84780000      -5.37080000       1.19300000
