16
Properties=species:S:1:pos:R:3 gdb_29617=T pbc="F F F"
O        0.19120000       1.36170000       0.19950000
C        0.11940000       0.00690000       0.03700000
C        0.10050000      -0.73480000      -1.12250000
N        0.01770000      -2.05990000      -0.74300000
C       -0.01730000      -2.15630000       0.61740000
C        0.05150000      -0.88260000       1.14780000
C        0.01920000      -0.48640000       2.59610000
C       -1.41160000      -0.33340000       3.08640000
O       -1.87050000      -0.88520000       4.05300000
H        0.28570000       1.77900000      -0.66170000
H        0.14130000      -0.44280000      -2.15890000
H       -0.00500000      -2.83690000      -1.37800000
H       -0.07700000      -3.11300000       1.11110000
H        0.52620000      -1.21110000       3.23870000
H        0.51520000       0.48610000       2.71410000
H       -2.03410000       0.33820000       2.45230000
