18
Properties=species:S:1:pos:R:3 gdb_128835=T pbc="F F F"
C        0.02930000       1.39020000       0.11040000
O       -0.00450000      -0.01570000       0.02090000
C        0.63960000      -0.50920000      -1.12760000
C        0.51320000      -2.03690000      -1.11460000
C        1.17640000      -2.68340000      -2.28560000
C        0.70730000      -3.17240000      -3.48450000
N        1.75240000      -3.63880000      -4.22380000
N        2.85490000      -3.46930000      -3.55470000
N        2.51550000      -2.89050000      -2.38480000
H        1.06170000       1.77110000       0.15770000
H       -0.47290000       1.86580000      -0.74640000
H       -0.49340000       1.67090000       1.02750000
H        0.18360000      -0.10140000      -2.04500000
H        1.70290000      -0.21140000      -1.13870000
H        0.93150000      -2.41170000      -0.17340000
H       -0.54860000      -2.29800000      -1.11270000
H       -0.30760000      -3.21780000      -3.84580000
H        3.23680000      -2.68730000      -1.71080000
