14
Properties=species:S:1:pos:R:3 gdb_124031=T pbc="F F F"
C        0.39070000       1.51670000       0.15440000
O        1.12460000       0.38390000      -0.28780000
C       -0.23870000       0.18520000       0.09190000
C       -0.47920000      -0.61850000       1.32280000
N       -1.47540000      -1.51560000       1.26920000
C       -1.65140000      -2.22100000       2.37760000
C       -0.83680000      -2.01360000       3.48870000
N        0.12740000      -1.09400000       3.48000000
N        0.30890000      -0.38160000       2.37830000
H        0.68210000       1.90550000       1.12730000
H        0.14330000       2.24970000      -0.61220000
H       -0.92030000      -0.05340000      -0.72120000
H       -2.44900000      -2.96040000       2.38410000
H       -0.95250000      -2.57970000       4.40690000
