21
Properties=species:S:1:pos:R:3 gdb_114134=T pbc="F F F"
O        0.09040000       1.31770000       0.43580000
C        0.11860000      -0.08760000       0.22160000
C       -1.27660000      -0.67790000       0.07310000
C       -2.11070000      -0.34120000      -1.21520000
C       -2.29180000      -1.84730000      -1.46870000
C       -3.58820000      -2.46390000      -1.92710000
O       -3.58080000      -3.88280000      -1.90810000
C       -0.94650000      -2.48860000      -1.64740000
C       -1.42610000      -2.17110000      -0.24980000
H       -0.31470000       1.72070000      -0.33890000
H        0.74230000      -0.34250000      -0.64940000
H        0.61060000      -0.51320000       1.10340000
H       -1.85520000      -0.41260000       0.96290000
H       -3.04490000       0.17800000      -0.98650000
H       -1.59470000       0.21050000      -2.01140000
H       -4.39920000      -2.16190000      -1.25310000
H       -3.84840000      -2.07920000      -2.92770000
H       -3.03400000      -4.18180000      -2.64090000
H       -0.96360000      -3.54900000      -1.87800000
H       -0.12360000      -1.94790000      -2.10850000
H       -1.56130000      -2.96100000       0.47950000
