16
Properties=species:S:1:pos:R:3 gdb_11729=T pbc="F F F"
C        0.17380000       1.50010000       0.18060000
C       -0.10560000       0.00640000      -0.03930000
C        0.48630000      -0.50290000      -1.31630000
C        0.07300000      -0.18650000      -2.77000000
C        0.54700000      -1.63220000      -3.11340000
O        0.43240000      -2.33260000      -4.07360000
C        0.99450000      -1.85910000      -1.67430000
O        1.88860000      -0.75980000      -1.38150000
H        1.25010000       1.69110000       0.21890000
H       -0.24850000       2.10630000      -0.62740000
H       -0.26730000       1.84090000       1.12130000
H        0.30680000      -0.57870000       0.78970000
H       -1.18720000      -0.17470000      -0.05620000
H       -1.00420000      -0.09140000      -2.93890000
H        0.60280000       0.64330000      -3.24140000
H        1.10940000      -2.76740000      -1.09410000
