19
Properties=species:S:1:pos:R:3 gdb_67713=T pbc="F F F"
O       -0.05350000       1.34620000      -0.06600000
C        0.02300000      -0.03690000      -0.01150000
C       -1.19280000      -0.91110000       0.00760000
C       -1.07010000      -2.01340000      -1.04460000
C        0.23620000      -1.67180000      -1.80780000
C        1.06890000      -0.84530000      -0.81220000
O        1.73860000      -1.68900000       0.13040000
C        0.88850000      -1.93200000       1.25480000
C       -0.21770000      -0.89680000       1.19530000
H        0.69810000       1.70970000       0.41580000
H       -2.16160000      -0.46680000       0.20720000
H       -1.02140000      -3.00800000      -0.58730000
H       -1.93830000      -2.01700000      -1.70910000
H        0.78410000      -2.54780000      -2.16400000
H        0.00070000      -1.04240000      -2.67370000
H        1.82380000      -0.21840000      -1.29370000
H        0.50870000      -2.96440000       1.22370000
H        1.48450000      -1.82570000       2.16950000
H       -0.58630000      -0.45910000       2.11610000
