18
Properties=species:S:1:pos:R:3 gdb_17406=T pbc="F F F"
C       -0.05940000       1.52220000      -0.07190000
C       -0.04180000       0.02330000       0.07810000
O        1.24710000      -0.61940000      -0.02660000
C        0.57370000      -0.65920000       1.21990000
C        1.24450000      -0.12450000       2.50340000
C        0.87480000      -1.45150000       3.19050000
C       -0.60720000      -1.67550000       3.12460000
C        0.22470000      -1.96660000       1.89980000
H        0.73380000       1.98370000       0.52190000
H        0.08690000       1.80820000      -1.11890000
H       -1.02280000       1.92860000       0.25530000
H       -0.83260000      -0.50850000      -0.45520000
H        2.31910000      -0.00840000       2.34300000
H        0.84400000       0.79030000       2.95310000
H        1.50760000      -1.98840000       3.88550000
H       -0.97500000      -2.55180000       3.64910000
H       -1.29390000      -0.83170000       3.13440000
H        0.27230000      -2.94450000       1.43720000
