18
Properties=species:S:1:pos:R:3 gdb_72875=T pbc="F F F"
C       -0.66530000       1.58380000       0.31360000
C       -0.14130000       0.18640000       0.09040000
C       -1.08630000      -1.01690000       0.32610000
O       -0.09910000      -1.69880000       1.13450000
C        0.84010000      -0.62460000       0.99030000
C        1.74040000      -0.78830000      -0.25470000
N        0.79560000       0.03630000      -1.05410000
C        3.11370000      -0.14850000      -0.18910000
O        3.83240000      -0.19510000       0.77570000
H        0.15300000       2.30860000       0.30800000
H       -1.36290000       1.86350000      -0.48520000
H       -1.19770000       1.65820000       1.26690000
H       -1.98770000      -0.79150000       0.91040000
H       -1.37160000      -1.58770000      -0.56760000
H        1.29940000      -0.31450000       1.92950000
H        1.84820000      -1.84130000      -0.54820000
H        0.40530000      -0.40570000      -1.88030000
H        3.39770000       0.40050000      -1.11570000
