20
Properties=species:S:1:pos:R:3 gdb_114470=T pbc="F F F"
C       -0.14540000       1.44980000       0.14190000
O        0.28060000       0.13270000      -0.13420000
C        0.77700000      -0.53430000       0.99390000
C       -0.23820000      -1.16670000       2.00430000
N        0.37890000      -2.52190000       1.80210000
C       -0.25060000      -3.41410000       0.79900000
C       -0.82610000      -2.73030000      -0.41040000
C        0.66560000      -2.90030000      -0.31720000
C        1.28930000      -1.97700000       0.73520000
H        0.67570000       2.06160000       0.54700000
H       -0.48220000       1.88660000      -0.80100000
H       -0.97830000       1.47270000       0.86040000
H        1.53040000       0.09010000       1.49790000
H       -0.14140000      -0.82930000       3.04010000
H       -1.28640000      -1.08920000       1.69950000
H       -0.52650000      -4.42510000       1.07830000
H       -1.30290000      -3.41500000      -1.10590000
H       -1.27640000      -1.74630000      -0.37740000
H        1.23370000      -3.45380000      -1.05380000
H        2.35960000      -2.14050000       0.89060000
