18
Properties=species:S:1:pos:R:3 gdb_31118=T pbc="F F F"
C       -0.17490000       1.56290000       0.23060000
C       -0.00400000       0.09160000       0.03600000
C        0.05180000      -0.67390000      -1.11680000
C       -0.03200000      -0.25490000      -2.54680000
O        0.90970000      -0.98030000      -3.36370000
C        0.18710000      -2.04020000      -0.70990000
O        0.28820000      -3.10840000      -1.54760000
C        0.20370000      -2.07880000       0.66140000
N        0.07820000      -0.76930000       1.09610000
H        0.46190000       1.93800000       1.04060000
H        0.09810000       2.10580000      -0.67810000
H       -1.20930000       1.83860000       0.47370000
H       -1.00450000      -0.49900000      -2.99100000
H        0.11020000       0.82910000      -2.66090000
H        1.78380000      -0.81940000      -2.98930000
H        0.49570000      -2.74470000      -2.42240000
H        0.30740000      -2.90130000       1.34780000
H        0.06280000      -0.48800000       2.06020000
