23
Properties=species:S:1:pos:R:3 gdb_95497=T pbc="F F F"
C       -0.28040000       1.45750000       0.07090000
C        0.03080000      -0.03650000       0.03400000
C        0.52620000      -0.48370000      -1.34590000
C        0.49070000      -1.99470000      -1.62220000
C        1.01090000      -2.28170000      -3.04200000
C        1.20150000      -2.87670000      -0.62010000
C        1.42940000      -2.70190000       0.68180000
C        1.06900000      -1.55080000       1.58630000
O        1.02980000      -0.26220000       1.02220000
H        0.60810000       2.03660000      -0.20110000
H       -1.08340000       1.70670000      -0.62900000
H       -0.58620000       1.75600000       1.07700000
H       -0.88030000      -0.59940000       0.30310000
H       -0.07800000       0.01050000      -2.11730000
H        1.55220000      -0.11070000      -1.45710000
H       -0.56960000      -2.30000000      -1.60300000
H        2.06780000      -2.00690000      -3.13250000
H        0.91950000      -3.34380000      -3.29130000
H        0.45010000      -1.71150000      -3.78940000
H        1.52790000      -3.82840000      -1.03920000
H        1.90700000      -3.52340000       1.21510000
H        0.10310000      -1.78040000       2.07750000
H        1.81260000      -1.48840000       2.38900000
