22
Properties=species:S:1:pos:R:3 gdb_114124=T pbc="F F F"
C       -0.10640000       1.50450000      -0.04900000
C        0.12250000      -0.00970000      -0.08290000
C        0.74200000      -0.54800000       1.20170000
C       -0.11140000      -0.54180000       2.52840000
C        0.10200000      -2.05850000       2.63000000
C        0.27830000      -2.87680000       3.86400000
O       -0.98830000      -3.04460000       4.48970000
N       -0.50100000      -2.62170000       1.39660000
C        0.87590000      -2.07260000       1.35640000
H        0.83510000       2.04770000       0.09380000
H       -0.55630000       1.85980000      -0.98140000
H       -0.77650000       1.78650000       0.77040000
H       -0.82380000      -0.53230000      -0.25770000
H        0.77880000      -0.26200000      -0.92700000
H        1.70950000      -0.06740000       1.38630000
H        0.36220000       0.02070000       3.33650000
H       -1.15570000      -0.23610000       2.43250000
H        0.72330000      -3.84970000       3.59160000
H        0.98760000      -2.37030000       4.53820000
H       -0.84590000      -3.46380000       5.34370000
H       -0.42210000      -3.63700000       1.45850000
H        1.70920000      -2.69890000       1.05660000
