20
Properties=species:S:1:pos:R:3 gdb_92791=T pbc="F F F"
C       -0.06590000       1.56510000      -0.06380000
C        0.06090000       0.04320000      -0.03350000
C        0.88640000      -0.55930000      -1.20410000
C        1.54110000      -1.76610000      -0.58340000
C        1.45680000      -1.73690000       0.75240000
C        0.72200000      -0.51480000       1.25420000
N        2.01960000      -2.69580000       1.60290000
C        2.00150000      -2.73480000       2.97250000
O        1.48730000      -1.92710000       3.71210000
H        0.91940000       2.04230000      -0.00700000
H       -0.54840000       1.90570000      -0.98620000
H       -0.66200000       1.93220000       0.77840000
H       -0.94480000      -0.39090000      -0.09240000
H        0.25700000      -0.80420000      -2.06780000
H        1.64050000       0.15570000      -1.56890000
H        2.05910000      -2.52710000      -1.15770000
H        1.43340000       0.19800000       1.69300000
H        0.00330000      -0.74350000       2.04240000
H        2.50550000      -3.45710000       1.15120000
H        2.53850000      -3.63170000       3.34060000
