12
Properties=species:S:1:pos:R:3 gdb_1600=T pbc="F F F"
N       -0.02560000       0.94150000      -0.02490000
H        0.94810000       0.70530000       0.14450000
H       -0.07690000       2.75270000      -0.55890000
H       -0.49050000       0.08560000      -0.30750000
C       -0.62790000       1.47890000       1.21280000
C       -0.13900000       0.86310000       2.44080000
C        0.30360000       0.31880000       3.41580000
C       -0.47020000       3.03150000       1.23430000
O       -0.63800000       3.69470000       2.21640000
O       -0.18590000       3.53320000       0.02890000
H       -1.71230000       1.32250000       1.13790000
H        0.68430000      -0.14390000       4.29300000
