15
Properties=species:S:1:pos:R:3 gdb_930=T pbc="F F F"
C       -0.01170000       1.52350000       0.01030000
C       -0.00890000       0.01430000       0.00220000
C       -0.00390000      -0.69660000      -1.20160000
C        0.02690000      -2.08840000      -1.21230000
C        0.05100000      -2.79690000      -0.01340000
C        0.04150000      -2.10150000       1.19330000
C        0.01060000      -0.70960000       1.19810000
H        1.00960000       1.92450000       0.00250000
H       -0.52300000       1.92900000      -0.86780000
H       -0.50590000       1.91950000       0.90250000
H       -0.02660000      -0.15140000      -2.14080000
H        0.02810000      -2.62020000      -2.15840000
H        0.07180000      -3.88150000      -0.01940000
H        0.05400000      -2.64350000       2.13340000
H       -0.00080000      -0.17460000       2.14340000
