20
Properties=species:S:1:pos:R:3 gdb_101057=T pbc="F F F"
C       -0.00860000       1.47690000       0.26070000
C        0.19820000      -0.03670000       0.14450000
C        0.69680000      -0.49200000      -1.23790000
N        2.08920000      -0.08390000      -1.44460000
C        0.60420000      -2.02880000      -1.36660000
C        1.56010000      -2.78440000      -2.22890000
N        1.66360000      -2.86500000      -0.76950000
C       -0.74070000      -2.55030000      -1.23350000
N       -1.83260000      -2.92330000      -1.15530000
H        0.91480000       2.04330000       0.09530000
H       -0.74620000       1.82930000      -0.46830000
H       -0.37300000       1.74010000       1.25770000
H        0.91190000      -0.38320000       0.90330000
H       -0.74790000      -0.54380000       0.35630000
H        0.02530000      -0.06500000      -1.99820000
H        2.25810000       0.19770000      -2.40290000
H        2.32180000       0.70820000      -0.85880000
H        1.22490000      -3.69180000      -2.72080000
H        2.30470000      -2.20220000      -2.76240000
H        2.39640000      -2.21240000      -0.48370000
