20
Properties=species:S:1:pos:R:3 gdb_92029=T pbc="F F F"
O        0.00240000       1.42600000      -0.00600000
C        0.04160000       0.00240000      -0.03940000
C        0.85300000      -0.55430000       1.14480000
C        0.83970000      -2.07900000       1.23320000
C        0.03010000      -2.78350000       2.29650000
C       -0.44170000      -2.79660000       0.86540000
C       -1.60220000      -1.95720000       0.40580000
N       -1.99150000      -0.79480000       1.22860000
C       -1.35840000      -0.57720000      -0.09110000
H       -0.47320000       1.66770000       0.79750000
H        0.54670000      -0.24130000      -0.98270000
H        1.87880000      -0.18600000       1.05750000
H        0.43600000      -0.12000000       2.05950000
H        1.75930000      -2.56900000       0.92920000
H        0.41620000      -3.70540000       2.71760000
H       -0.52790000      -2.15970000       2.98590000
H       -0.34370000      -3.73090000       0.32100000
H       -2.41170000      -2.51280000      -0.06210000
H       -2.99550000      -0.65210000       1.16940000
H       -1.97870000      -0.19380000      -0.89800000
