19
Properties=species:S:1:pos:R:3 gdb_52090=T pbc="F F F"
O       -0.23500000       0.07180000       0.00320000
C       -0.00750000       1.25370000       0.01370000
C        1.35930000       1.87750000      -0.14130000
C        1.39690000       2.89620000      -1.29530000
C        2.67210000       3.68790000      -1.31170000
C        4.15420000       3.21520000      -1.34170000
C        4.10750000       4.73070000      -1.04990000
C        3.06550000       4.91820000      -2.17430000
O        2.99860000       4.48970000      -0.09620000
H       -0.83320000       1.99390000       0.14250000
H        1.59710000       2.40960000       0.78990000
H        2.09580000       1.08140000      -0.27910000
H        1.28330000       2.38660000      -2.25950000
H        0.55850000       3.59840000      -1.20300000
H        4.46330000       2.59220000      -0.50170000
H        4.56840000       2.88400000      -2.29760000
H        4.90560000       5.39790000      -0.72700000
H        3.37940000       4.74410000      -3.20670000
H        2.41420000       5.78610000      -2.06300000
