17
Properties=species:S:1:pos:R:3 gdb_129596=T pbc="F F F"
N       -0.16860000       1.25590000       0.40040000
C       -0.12420000      -0.08270000       0.10100000
C       -1.10820000      -0.98470000      -0.22460000
C       -0.35230000      -2.15870000      -0.48870000
N        0.93840000      -2.00580000      -0.33330000
O        1.08480000      -0.64900000       0.05050000
C       -2.56710000      -0.75000000      -0.30450000
C       -3.53210000      -1.68950000       0.37840000
C       -3.34030000      -0.29960000       0.92410000
H        0.61160000       1.59100000       0.94760000
H       -1.06380000       1.56870000       0.74700000
H       -0.72530000      -3.12990000      -0.78650000
H       -2.92550000      -0.33070000      -1.24270000
H       -4.46290000      -1.91900000      -0.12750000
H       -3.11370000      -2.51270000       0.94640000
H       -2.79440000      -0.20310000       1.85660000
H       -4.13970000       0.42090000       0.79100000
