20
Properties=species:S:1:pos:R:3 gdb_81771=T pbc="F F F"
C       -0.08810000       1.49300000       0.02620000
C        0.11730000       0.01210000      -0.02070000
N       -0.74770000      -0.94920000       0.71310000
C        0.72230000      -0.92450000       0.96380000
C        1.29100000      -1.81660000      -0.14320000
O        0.85570000      -3.14550000      -0.16650000
C        0.70410000      -0.79880000      -1.20680000
C       -0.25010000      -1.34000000      -2.25360000
O        1.81540000      -0.12860000      -1.78480000
H        0.78640000       2.00370000      -0.38890000
H       -0.96890000       1.79780000      -0.55170000
H       -0.22530000       1.84400000       1.05480000
H       -1.19850000      -0.44300000       1.47420000
H        1.10840000      -0.74620000       1.96070000
H        2.38060000      -1.80940000      -0.20620000
H       -0.07590000      -3.11590000       0.09130000
H       -1.11180000      -1.81890000      -1.78460000
H       -0.62440000      -0.53060000      -2.89420000
H        0.25880000      -2.07300000      -2.88580000
H        1.48270000       0.47260000      -2.46000000
