20
Properties=species:S:1:pos:R:3 gdb_120704=T pbc="F F F"
C       -0.21520000       1.44400000      -0.37900000
C       -0.38240000      -0.06430000      -0.52250000
N       -1.08590000      -0.63060000       0.63830000
H       -0.60920000      -0.36530000       1.49540000
H       -2.80670000      -0.29510000       0.42230000
C       -1.24720000      -2.06540000       0.58730000
C       -2.21690000      -2.68970000       1.53710000
C       -2.56230000      -2.62250000       0.05590000
C       -3.70440000      -1.75640000      -0.40640000
O       -4.58550000      -2.19090000      -1.10230000
O       -3.69510000      -0.48250000       0.02010000
H        0.30150000       1.85510000      -1.25040000
H       -1.18690000       1.93830000      -0.29020000
H        0.37840000       1.69520000       0.50770000
H       -0.98060000      -0.29510000      -1.41070000
H        0.59930000      -0.54470000      -0.66580000
H       -0.35760000      -2.64130000       0.32750000
H       -1.98390000      -3.65980000       1.95940000
H       -2.76630000      -2.02490000       2.19490000
H       -2.51190000      -3.55250000      -0.49630000
