13
Properties=species:S:1:pos:R:3 gdb_3793=T pbc="F F F"
C        0.02540000       1.43310000       0.14360000
N       -0.04060000       0.03280000      -0.23830000
C       -1.21540000      -0.66710000      -0.08280000
N       -1.19890000      -1.97520000       0.09340000
O       -2.54610000      -2.36050000       0.13690000
C       -3.30930000      -1.27320000       0.00420000
C       -2.55250000      -0.15790000      -0.13710000
H        1.02980000       1.80660000      -0.06780000
H       -0.67450000       2.02040000      -0.45860000
H       -0.19820000       1.61490000       1.20560000
H        0.76840000      -0.51660000       0.01480000
H       -4.37580000      -1.43950000       0.02720000
H       -2.88470000       0.85750000      -0.26700000
