17
Properties=species:S:1:pos:R:3 gdb_32184=T pbc="F F F"
C        0.39400000       0.81350000       0.52920000
N       -0.18080000       0.10070000      -0.62180000
C       -1.39060000      -0.57260000      -0.38370000
C       -2.69970000      -0.19980000      -0.51080000
C       -3.51480000      -1.32390000      -0.14330000
C       -2.68630000      -2.34510000       0.21070000
N       -1.37570000      -1.90630000       0.05590000
C       -0.24370000      -2.70100000       0.21050000
O       -0.27610000      -3.84310000       0.59330000
H        1.32790000       1.29120000       0.22040000
H       -0.27690000       1.57710000       0.94920000
H        0.62830000       0.09780000       1.32230000
H       -0.28710000       0.73080000      -1.40680000
H       -3.04580000       0.77340000      -0.82580000
H       -4.59370000      -1.35580000      -0.13560000
H       -2.86880000      -3.35040000       0.54920000
H        0.67210000      -2.15870000      -0.06960000
