20
Properties=species:S:1:pos:R:3 gdb_11137=T pbc="F F F"
C        0.14020000       1.26640000       0.20730000
O       -0.30600000       0.00660000      -0.23920000
C        0.50140000      -0.54330000      -1.24460000
C        1.87660000      -1.16400000      -0.85520000
C        1.53880000      -2.35240000      -1.79850000
C        1.90850000      -3.74810000      -1.34430000
O        1.39280000      -4.66890000      -2.29550000
C        0.04510000      -1.92680000      -1.74270000
H        1.14390000       1.21450000       0.65620000
H        0.16950000       2.00190000      -0.61260000
H       -0.56530000       1.61310000       0.96640000
H        0.61840000       0.17250000      -2.07430000
H        2.78720000      -0.59290000      -1.05000000
H        1.86000000      -1.47270000       0.19570000
H        1.95010000      -2.18750000      -2.79950000
H        3.00500000      -3.83340000      -1.25790000
H        1.48600000      -3.93080000      -0.34220000
H        1.59140000      -5.55950000      -1.99220000
H       -0.48570000      -2.45090000      -0.94190000
H       -0.54700000      -1.97650000      -2.65770000
