23
Properties=species:S:1:pos:R:3 gdb_115101=T pbc="F F F"
C        0.10370000       1.54510000      -0.04310000
C        0.00860000       0.01760000       0.02190000
C       -1.42290000      -0.53830000       0.00440000
C       -2.20860000      -0.13770000      -1.26050000
C       -3.47150000      -0.93850000      -1.45100000
C       -3.77180000      -2.03000000      -0.74540000
C       -2.85900000      -2.60060000       0.31220000
C       -1.42700000      -2.07350000       0.15460000
O       -0.76530000      -2.70970000      -0.93920000
H        1.14450000       1.87450000       0.03670000
H       -0.29190000       1.94020000      -0.98400000
H       -0.45560000       2.01460000       0.77470000
H        0.56440000      -0.43130000      -0.80950000
H        0.50230000      -0.33170000       0.93840000
H       -1.96220000      -0.13640000       0.87520000
H       -2.46060000       0.92880000      -1.22600000
H       -1.56500000      -0.24870000      -2.14720000
H       -4.16130000      -0.58560000      -2.21470000
H       -4.70890000      -2.55020000      -0.92890000
H       -3.24210000      -2.35900000       1.31390000
H       -2.84050000      -3.69550000       0.25120000
H       -0.83590000      -2.34990000       1.03520000
H       -1.37040000      -2.68850000      -1.68930000
