13
Properties=species:S:1:pos:R:3 gdb_127988=T pbc="F F F"
C        0.27380000       1.49100000       0.18470000
N        0.11110000       0.05250000       0.07070000
C        0.34030000      -0.54670000      -0.99440000
O        0.79440000       0.08050000      -2.14180000
N        0.77110000      -0.53340000      -3.38550000
C        0.47370000      -1.77450000      -3.40910000
C        0.19940000      -2.60120000      -2.21920000
O        0.01580000      -3.78110000      -2.23300000
O        0.18660000      -1.90820000      -1.04100000
H        1.21170000       1.70700000       0.70880000
H        0.28340000       2.01830000      -0.77480000
H       -0.53890000       1.88220000       0.80260000
H        0.46060000      -2.25440000      -4.38060000
