19
Properties=species:S:1:pos:R:3 gdb_6848=T pbc="F F F"
C       -0.07960000       1.56640000       0.00760000
C       -0.01070000       0.02910000       0.00110000
C       -1.42580000      -0.56220000      -0.00760000
C        0.75040000      -0.46210000      -1.23650000
O        2.12730000      -0.05710000      -1.22260000
C        2.73300000      -0.10200000      -0.01040000
N        2.22810000      -0.30020000       1.13050000
C        0.78140000      -0.48270000       1.22380000
H        0.91570000       2.01740000       0.03250000
H       -0.59520000       1.93890000      -0.88440000
H       -0.62970000       1.92100000       0.88530000
H       -2.00180000      -0.20380000      -0.86830000
H       -1.40350000      -1.65670000      -0.04870000
H       -1.97030000      -0.27340000       0.89770000
H        0.71420000      -1.55820000      -1.29620000
H        0.33190000      -0.05380000      -2.16080000
H        3.80030000       0.07930000      -0.12550000
H        0.43770000       0.02730000       2.13190000
H        0.57960000      -1.55090000       1.38350000
