16
Properties=species:S:1:pos:R:3 gdb_4100=T pbc="F F F"
C       -0.04720000       1.51710000       0.05620000
C       -0.01960000       0.02460000       0.01550000
C        0.00010000      -0.79110000      -1.06340000
N        0.15720000      -2.13870000      -0.75470000
C        0.04570000      -2.27400000       0.70490000
C        0.03420000      -0.83450000       1.18740000
N        0.08190000      -0.41670000       2.39870000
O        0.10170000      -1.52120000       3.28480000
H        0.85240000       1.91890000       0.53740000
H       -0.11480000       1.94100000      -0.94970000
H       -0.89960000       1.87930000       0.64200000
H       -0.04190000      -0.49520000      -2.10470000
H       -0.36360000      -2.80000000      -1.31260000
H       -0.87380000      -2.79230000       1.00590000
H        0.88700000      -2.83090000       1.13060000
H        0.15800000      -1.08920000       4.14320000
