17
Properties=species:S:1:pos:R:3 gdb_75806=T pbc="F F F"
N        0.18440000       1.34430000      -0.36390000
C        0.11930000      -0.06200000      -0.04470000
C        0.13200000      -0.55130000       1.40120000
N        0.88020000      -0.37580000       2.39030000
O       -1.05870000      -1.24510000       1.27410000
C       -1.26660000      -0.75500000      -0.08120000
C       -2.57370000      -0.01350000      -0.38680000
O       -2.89450000      -0.95180000      -1.43660000
C       -1.73550000      -1.75670000      -1.14090000
H       -0.21350000       1.90120000       0.38650000
H        1.15050000       1.63840000      -0.45650000
H        0.84770000      -0.60130000      -0.65740000
H        0.52330000      -0.84550000       3.22440000
H       -3.29880000      -0.03700000       0.43580000
H       -2.45840000       1.00780000      -0.76620000
H       -1.08170000      -1.88240000      -2.01240000
H       -1.99760000      -2.73980000      -0.73020000
