11
Properties=species:S:1:pos:R:3 gdb_23719=T pbc="F F F"
O        0.08760000       1.33430000       0.10550000
C        0.06750000      -0.01120000       0.05060000
N        0.09850000      -0.60140000      -1.13750000
C        0.07740000      -1.93520000      -1.15460000
C        0.02510000      -2.64920000       0.03590000
F        0.00460000      -3.97780000       0.00320000
N       -0.00600000      -2.07540000       1.22020000
C        0.01480000      -0.74690000       1.24260000
H        0.12390000       1.64880000      -0.80840000
H        0.10200000      -2.43950000      -2.11510000
H       -0.00990000      -0.24680000       2.20520000
