19
Properties=species:S:1:pos:R:3 gdb_124841=T pbc="F F F"
C       -0.28240000       1.63910000      -0.21680000
C       -0.01660000       0.14680000      -0.06240000
C       -1.24830000      -0.62780000       0.38960000
C        0.81250000      -0.52420000      -1.25070000
C        1.91630000      -0.71940000      -0.22190000
C        3.12580000      -1.08370000       0.34330000
C        2.97190000      -0.65770000       1.69170000
N        1.78310000      -0.08180000       1.95070000
N        1.19430000      -0.15170000       0.75080000
H        0.62020000       2.16760000      -0.53520000
H       -1.06770000       1.80930000      -0.96020000
H       -0.61400000       2.06950000       0.73300000
H       -2.05740000      -0.51170000      -0.33850000
H       -1.02490000      -1.69270000       0.49640000
H       -1.60290000      -0.25400000       1.35490000
H        0.36380000      -1.43750000      -1.64940000
H        1.04250000       0.15520000      -2.07530000
H        3.97990000      -1.56650000      -0.10080000
H        3.69310000      -0.75110000       2.49140000
