18
Properties=species:S:1:pos:R:3 gdb_61903=T pbc="F F F"
C       -1.41230000       0.31190000      -2.02110000
C       -0.79780000       0.02340000      -0.65380000
O       -1.22620000      -1.27500000      -0.24360000
C       -1.24250000      -1.46920000       1.16590000
C       -2.28130000      -0.69550000       1.84750000
C       -3.13320000      -0.05600000       2.40380000
C        0.73550000       0.14110000      -0.73470000
N        1.39450000      -1.05020000      -0.73510000
O        1.28110000       1.22420000      -0.81270000
H       -1.05970000       1.28000000      -2.38310000
H       -1.12400000      -0.46050000      -2.74090000
H       -2.50210000       0.32660000      -1.94610000
H       -1.13600000       0.77970000       0.06420000
H       -1.42080000      -2.53960000       1.31370000
H       -0.26020000      -1.23710000       1.60390000
H       -3.88600000       0.50620000       2.89940000
H        0.87040000      -1.90660000      -0.79770000
H        2.38570000      -1.05110000      -0.91100000
