15
Properties=species:S:1:pos:R:3 gdb_48898=T pbc="F F F"
O       -0.00150000      -0.02180000      -0.23530000
C        0.06150000       1.15240000       0.02230000
C        1.30370000       1.96790000       0.02070000
C        1.70040000       2.83370000       1.23910000
C        2.70080000       3.66000000       0.41130000
O        1.80790000       4.34460000      -0.51940000
C        1.64090000       3.08230000      -1.13180000
C        3.01900000       2.56770000      -0.71870000
O        2.54940000       1.29710000      -0.28400000
H       -0.84440000       1.75230000       0.27140000
H        0.90750000       3.46760000       1.63950000
H        2.14340000       2.21080000       2.01790000
H        3.42810000       4.31110000       0.88990000
H        1.14790000       3.05740000      -2.10110000
H        3.94400000       2.57640000      -1.29080000
