25
Properties=species:S:1:pos:R:3 gdb_103850=T pbc="F F F"
C        0.20650000       1.54610000       0.21370000
C       -0.19640000       0.11130000      -0.15230000
C        0.60670000      -0.48510000      -1.30110000
C        0.43210000       0.22110000      -2.63490000
C        1.97430000      -1.06090000      -0.99680000
C        0.83350000      -1.98640000      -1.36220000
C        0.27420000      -2.96450000      -0.37640000
C       -0.92100000      -3.81380000      -0.73920000
C        0.44250000      -4.44700000      -0.61290000
H        1.27090000       1.60250000       0.46590000
H        0.02290000       2.24460000      -0.60840000
H       -0.36290000       1.90140000       1.07840000
H       -0.08880000      -0.51860000       0.73640000
H       -1.26390000       0.08720000      -0.41080000
H        0.77680000       1.26030000      -2.59470000
H        1.00140000      -0.27990000      -3.42420000
H       -0.62140000       0.23220000      -2.94040000
H        2.77920000      -0.91210000      -1.70970000
H        2.29970000      -1.06500000       0.03960000
H        0.86890000      -2.38770000      -2.37390000
H        0.33220000      -2.65580000       0.66300000
H       -1.66070000      -4.02200000       0.02630000
H       -1.33540000      -3.69910000      -1.73550000
H        0.94420000      -4.75750000      -1.52380000
H        0.63790000      -5.08790000       0.23990000
