12
Properties=species:S:1:pos:R:3 gdb_23945=T pbc="F F F"
N        0.05700000      -3.70930000      -0.01860000
C        0.04600000      -2.54640000      -0.01200000
C        0.02710000      -1.18450000      -0.00420000
C        0.00040000       0.02660000       0.00290000
C       -0.03650000       1.43410000       0.01130000
C       -1.16160000       2.23500000       0.03090000
N       -0.68930000       3.51690000       0.03170000
C        0.67830000       3.45190000       0.01280000
N        1.10820000       2.21820000       0.00020000
H       -2.21220000       2.00000000       0.04380000
H       -1.24990000       4.35330000       0.04390000
H        1.29600000       4.33740000       0.00940000
