21
Properties=species:S:1:pos:R:3 gdb_63963=T pbc="F F F"
C       -0.15200000       1.58120000       0.02950000
C        0.01720000       0.06050000       0.02280000
O       -1.28150000      -0.56280000       0.01490000
C        0.75890000      -0.47800000      -1.24310000
C        1.47450000      -1.74070000      -0.73370000
C        3.02710000      -1.98850000      -0.70400000
C        2.92550000      -2.21320000       0.85310000
C        1.60260000      -1.49260000       0.74440000
C        0.89690000      -0.45140000       1.17190000
H        0.81670000       2.09130000       0.01930000
H       -0.72740000       1.90110000      -0.84450000
H       -0.69400000       1.90500000       0.92570000
H       -1.64390000      -0.48790000       0.90370000
H        0.05110000      -0.64790000      -2.05840000
H        1.49170000       0.26610000      -1.57330000
H        0.94430000      -2.66460000      -0.98770000
H        3.41480000      -2.81970000      -1.29750000
H        3.58800000      -1.07990000      -0.93780000
H        2.82130000      -3.27690000       1.09200000
H        3.69470000      -1.78030000       1.49690000
H        0.95170000       0.04470000       2.13530000
