17
Properties=species:S:1:pos:R:3 gdb_1474=T pbc="F F F"
C        0.03100000       1.54000000       0.04110000
C       -0.03430000       0.01450000       0.00140000
N       -1.40380000      -0.50420000      -0.03190000
C       -2.11650000      -0.16790000      -1.25990000
C       -1.41160000      -1.93960000       0.21420000
C       -2.76510000      -2.45400000       0.45880000
N       -3.82510000      -2.87380000       0.64410000
H        1.06470000       1.86060000       0.20150000
H       -0.31000000       1.99530000      -0.89250000
H       -0.58380000       1.92800000       0.85830000
H        0.56020000      -0.36190000      -0.85490000
H        0.43990000      -0.38030000       0.90740000
H       -1.61840000      -0.56470000      -2.16500000
H       -3.13000000      -0.57500000      -1.21950000
H       -2.19850000       0.91560000      -1.36070000
H       -0.97230000      -2.52980000      -0.61490000
H       -0.80830000      -2.15140000       1.10390000
