17
Properties=species:S:1:pos:R:3 gdb_46187=T pbc="F F F"
N        0.03000000       1.22630000      -0.25180000
C        0.03010000      -0.00060000       0.00810000
O        1.05470000      -0.83740000       0.39870000
C        0.16510000      -1.99730000       0.45840000
C       -1.01050000      -1.10010000       0.04230000
C       -2.42530000      -1.03410000       0.64270000
C       -2.77730000      -0.29310000      -0.66790000
N       -1.87450000      -1.44200000      -1.17940000
C       -2.66630000      -2.31500000      -0.18300000
H        0.96250000       1.63200000      -0.15650000
H        0.45870000      -2.75460000      -0.27240000
H        0.13620000      -2.41620000       1.46750000
H       -2.71130000      -0.80270000       1.67340000
H       -3.80540000      -0.37440000      -1.02890000
H       -2.35410000       0.69740000      -0.83080000
H       -2.14930000      -3.23400000       0.10720000
H       -3.68640000      -2.52340000      -0.51490000
