21
Properties=species:S:1:pos:R:3 gdb_59669=T pbc="F F F"
C        0.89330000      -0.44980000      -1.27010000
C        0.07090000       0.04800000      -0.07410000
C       -0.09100000       1.57550000      -0.11290000
C       -1.30230000      -0.61670000       0.00960000
O       -2.06570000      -0.51380000      -1.22660000
C       -2.31040000      -1.93630000      -1.28090000
C       -1.44900000      -2.13920000      -0.04100000
C       -0.58110000      -3.23410000       0.38530000
O       -1.81220000      -2.93740000       1.06400000
H        1.87150000       0.03980000      -1.29520000
H        1.06320000      -1.53000000      -1.22950000
H        0.37560000      -0.22420000      -2.20680000
H        0.59470000      -0.21950000       0.85580000
H       -0.66140000       1.87730000      -0.99740000
H       -0.62130000       1.94400000       0.77130000
H        0.88360000       2.07170000      -0.15320000
H       -1.87220000      -0.19310000       0.84980000
H       -3.36850000      -2.18670000      -1.13440000
H       -1.95110000      -2.38240000      -2.21590000
H       -0.57070000      -4.16680000      -0.17790000
H        0.32490000      -3.02440000       0.95200000
