19
Properties=species:S:1:pos:R:3 gdb_104876=T pbc="F F F"
O       -0.13220000       1.39900000       0.24280000
C       -0.04420000       0.00690000       0.04020000
C       -1.43280000      -0.64630000      -0.10830000
C       -1.31450000      -2.18310000      -0.07360000
O       -2.57340000      -2.80960000       0.02400000
O       -2.23190000      -0.24220000       1.03450000
C       -3.40510000       0.46070000       0.60520000
C       -3.31780000       0.48790000      -0.89260000
C       -2.21500000      -0.13130000      -1.28800000
H       -0.71220000       1.51100000       1.00510000
H        0.53950000      -0.14950000      -0.87350000
H        0.49190000      -0.48530000       0.86730000
H       -0.84740000      -2.54070000      -0.99770000
H       -0.65870000      -2.46880000       0.76430000
H       -2.99340000      -2.42160000       0.80060000
H       -4.30350000      -0.06100000       0.96780000
H       -3.41620000       1.46840000       1.04730000
H       -4.06700000       0.95500000      -1.51860000
H       -1.87840000      -0.27360000      -2.30690000
