15
Properties=species:S:1:pos:R:3 gdb_24173=T pbc="F F F"
C       -0.00770000       1.31060000       0.00980000
C        1.28020000       1.80000000      -0.00010000
N        2.09140000       0.68940000      -0.01440000
C        3.45520000       0.56010000      -0.02850000
C        4.00970000      -0.68450000      -0.04100000
C        3.18110000      -1.83990000      -0.03950000
C        1.81690000      -1.71270000      -0.02540000
C        1.23350000      -0.42840000      -0.01230000
N       -0.04000000      -0.05030000       0.00230000
H       -0.91890000       1.89170000       0.02200000
H        1.68250000       2.79910000       0.00170000
H        4.02600000       1.47980000      -0.02890000
H        5.08810000      -0.77940000      -0.05220000
H        3.63830000      -2.82250000      -0.04960000
H        1.15310000      -2.56830000      -0.02380000
