21
Properties=species:S:1:pos:R:3 gdb_119154=T pbc="F F F"
C       -0.16880000       1.34580000       0.99460000
O       -0.19090000      -0.05610000       1.16120000
C        0.82570000      -0.72130000       0.42850000
C        0.76340000      -2.20530000       0.73570000
C        0.18350000      -3.11900000      -0.25390000
O        1.60550000      -2.97660000      -0.12840000
C        0.76430000      -2.62170000       2.20590000
C        1.93300000      -2.02630000       2.99560000
O       -0.48820000      -2.32830000       2.80750000
H       -0.32480000       1.62500000      -0.05770000
H       -0.98040000       1.75960000       1.59670000
H        0.78580000       1.77750000       1.33080000
H        0.70120000      -0.55790000      -0.65220000
H        1.81450000      -0.32490000       0.70930000
H       -0.22080000      -4.07410000       0.07620000
H       -0.24340000      -2.72320000      -1.17410000
H        0.85600000      -3.71380000       2.21860000
H        1.85840000      -0.93520000       3.04940000
H        1.91750000      -2.41290000       4.01770000
H        2.89150000      -2.28940000       2.53560000
H       -0.67720000      -1.40310000       2.60180000
