22
Properties=species:S:1:pos:R:3 gdb_61806=T pbc="F F F"
C       -0.18150000       1.76890000       0.32850000
C       -0.01110000       0.27760000       0.02080000
N        0.64090000       0.11680000      -1.28190000
C        0.25570000      -0.80340000      -2.20250000
O       -0.64520000      -1.60620000      -2.06350000
C        0.71260000      -0.49350000       1.12580000
C        2.11900000      -0.03520000       1.46100000
C       -0.15360000      -1.02390000       2.24430000
C        0.41060000      -1.97030000       1.21090000
H        0.78270000       2.28860000       0.35980000
H       -0.79970000       2.25160000      -0.43360000
H       -0.66160000       1.90340000       1.30160000
H       -0.99900000      -0.17540000      -0.10270000
H        1.40450000       0.73040000      -1.51920000
H        0.86170000      -0.73700000      -3.12850000
H        2.14060000       0.99170000       1.84310000
H        2.56150000      -0.67750000       2.22820000
H        2.77250000      -0.08240000       0.58160000
H        0.26460000      -1.04490000       3.24530000
H       -1.21860000      -0.81590000       2.21660000
H       -0.26200000      -2.38730000       0.47030000
H        1.21310000      -2.63400000       1.51580000
