19
Properties=species:S:1:pos:R:3 gdb_39051=T pbc="F F F"
C       -0.12870000       1.31370000      -0.14920000
C        1.32610000       0.91380000       0.00350000
C        2.12620000       1.19860000       1.22070000
C        1.76140000       1.14830000       2.50520000
C        0.39920000       0.74970000       3.03040000
C       -0.05230000      -0.61810000       2.53820000
O       -1.32150000      -0.72240000       1.88630000
C       -0.13830000      -1.00150000       1.11910000
C        0.21450000      -0.14240000      -0.05510000
H       -0.63120000       1.77120000       0.69190000
H       -0.44410000       1.69760000      -1.11290000
H        1.90740000       0.98460000      -0.91030000
H        3.15150000       1.49610000       1.01070000
H        2.50660000       1.41430000       3.24990000
H        0.41900000       0.73560000       4.12440000
H       -0.36170000       1.48960000       2.75990000
H        0.14430000      -1.43040000       3.24020000
H       -0.01360000      -2.06520000       0.91000000
H        0.17680000      -0.68910000      -0.99250000
