11
Properties=species:S:1:pos:R:3 gdb_1378=T pbc="F F F"
N        0.12620000       1.44080000       0.00630000
C        0.05210000       0.17430000       0.00140000
N       -1.13720000      -0.55210000       0.00850000
C       -2.44660000      -0.08310000       0.02440000
O       -2.79280000       1.06440000       0.03530000
C        1.28430000      -0.71540000      -0.01320000
O        2.39630000      -0.26340000      -0.02130000
H        1.11990000       1.69120000      -0.00100000
H       -1.04360000      -1.55780000       0.00170000
H       -3.15180000      -0.93910000       0.02620000
H        1.10300000      -1.81480000      -0.01650000
