16
Properties=species:S:1:pos:R:3 gdb_26827=T pbc="F F F"
C       -0.05690000       1.55930000       0.00780000
C       -0.02080000       0.06150000       0.02850000
C        0.01230000      -0.78120000      -1.06750000
N       -0.02820000      -0.52640000      -2.41450000
O        0.02720000      -2.07120000      -0.70830000
C        0.00090000      -2.10540000       0.67530000
C        0.01630000      -3.37290000       1.35400000
O        0.05120000      -4.47050000       0.83260000
C       -0.02890000      -0.81430000       1.14290000
H        0.70020000       1.97990000      -0.66620000
H       -1.03010000       1.94840000      -0.31600000
H        0.14150000       1.96400000       1.00350000
H        0.31350000       0.38280000      -2.68790000
H        0.32270000      -1.27560000      -2.99430000
H       -0.00700000      -3.24940000       2.46070000
H       -0.05000000      -0.52780000       2.18460000
