19
Properties=species:S:1:pos:R:3 gdb_121554=T pbc="F F F"
O       -0.05490000       1.27150000       0.82560000
C        0.00360000       0.03210000       0.13850000
C       -1.38680000      -0.58800000       0.17840000
C       -1.43940000      -1.94500000      -0.54880000
C       -2.76250000      -2.55800000      -0.51920000
C       -3.86080000      -3.04730000      -0.47920000
C       -5.19670000      -3.64590000      -0.43980000
C       -5.26310000      -4.88630000       0.33630000
C       -5.33040000      -5.90410000       0.96940000
H        0.82110000       1.66740000       0.80890000
H        0.32000000       0.16990000      -0.90910000
H        0.72980000      -0.65220000       0.60830000
H       -1.69200000      -0.71480000       1.22200000
H       -2.09990000       0.10570000      -0.27880000
H       -1.12030000      -1.81530000      -1.59200000
H       -0.71260000      -2.63280000      -0.09560000
H       -5.91170000      -2.92260000      -0.02330000
H       -5.54300000      -3.84360000      -1.46390000
H       -5.38440000      -6.80360000       1.53090000
