16
Properties=species:S:1:pos:R:3 gdb_131778=T pbc="F F F"
O        0.13440000       1.47810000      -0.23270000
C        0.09770000       0.06940000      -0.11370000
C       -1.34340000      -0.47010000      -0.00630000
C       -1.40940000      -1.95710000       0.06980000
C       -1.41190000      -2.84220000       1.12790000
O       -1.38780000      -2.53420000       2.44110000
N       -1.44700000      -4.11530000       0.67440000
N       -1.46430000      -4.09350000      -0.63650000
N       -1.43630000      -2.80630000      -0.99840000
H       -0.14520000       1.85600000       0.60730000
H        0.57270000      -0.32230000      -1.01940000
H        0.68690000      -0.28890000       0.74300000
H       -1.81000000      -0.05860000       0.89630000
H       -1.91990000      -0.09450000      -0.85940000
H       -1.42390000      -3.36960000       2.92360000
H       -1.45810000      -2.57360000      -1.97900000
