18
Properties=species:S:1:pos:R:3 gdb_125493=T pbc="F F F"
C       -0.14620000       1.34450000       0.00780000
C        0.08430000      -0.12910000       0.03870000
N       -0.20390000      -0.91710000      -0.98710000
N        0.14650000      -2.15070000      -0.52950000
C        0.63170000      -2.03600000       0.72560000
N        0.60370000      -0.78120000       1.12460000
C        0.07110000      -3.30670000      -1.36970000
C       -0.52870000      -4.56950000      -0.80800000
C       -1.27830000      -3.76770000      -1.84130000
H        0.78980000       1.88530000       0.17910000
H       -0.55670000       1.64140000      -0.95860000
H       -0.84230000       1.64440000       0.79760000
H        0.98170000      -2.88490000       1.29350000
H        0.90490000      -3.40020000      -2.05870000
H       -0.07460000      -5.50970000      -1.09800000
H       -0.89680000      -4.54080000       0.21080000
H       -2.13280000      -3.19040000      -1.51060000
H       -1.34900000      -4.15030000      -2.85230000
