22
Properties=species:S:1:pos:R:3 gdb_60495=T pbc="F F F"
C       -0.02920000       1.52680000      -0.06510000
C       -0.08700000       0.00080000      -0.12620000
O        0.90140000      -0.58710000       0.72010000
C       -1.48750000      -0.54430000       0.18690000
C       -1.58300000      -2.06640000       0.05100000
C       -2.95160000      -2.61060000       0.47160000
N       -3.04590000      -4.05690000       0.34490000
C       -3.87930000      -4.67780000      -0.53180000
O       -4.66520000      -4.12300000      -1.27100000
H        0.98490000       1.87750000      -0.27490000
H       -0.71210000       1.97980000      -0.79080000
H       -0.31730000       1.88690000       0.93110000
H        0.19750000      -0.32600000      -1.13460000
H        0.76250000      -0.24230000       1.60960000
H       -1.75900000      -0.24200000       1.21020000
H       -2.21650000      -0.06190000      -0.47710000
H       -1.38930000      -2.36020000      -0.98810000
H       -0.79250000      -2.52360000       0.65770000
H       -3.16960000      -2.31850000       1.50780000
H       -3.74510000      -2.20250000      -0.15910000
H       -2.41330000      -4.63090000       0.87990000
H       -3.76420000      -5.77970000      -0.49220000
