24
Properties=species:S:1:pos:R:3 gdb_101022=T pbc="F F F"
C       -0.11730000       1.57230000       0.06850000
C       -0.17190000       0.04210000       0.13030000
C        0.80160000      -0.56150000       1.15190000
O        0.54170000      -0.05040000       2.46100000
C        0.81910000      -2.10080000       1.15560000
C        1.10180000      -2.73070000      -0.20490000
C        1.39570000      -4.23340000      -0.19080000
C        1.24340000      -2.75980000       2.41650000
N       -0.17210000      -2.80410000       1.98750000
H        0.87850000       1.91470000      -0.23320000
H       -0.83920000       1.96010000      -0.65610000
H       -0.33610000       2.02840000       1.03860000
H       -1.19070000      -0.29500000       0.37450000
H        0.04880000      -0.36600000      -0.86010000
H        1.81850000      -0.22450000       0.90290000
H       -0.38750000       0.19370000       2.51010000
H        0.23330000      -2.55450000      -0.85100000
H        1.94260000      -2.19630000      -0.66870000
H        2.35090000      -4.45770000       0.29340000
H        0.60590000      -4.77410000       0.33800000
H        1.44750000      -4.61890000      -1.21350000
H        1.75510000      -3.71610000       2.39240000
H        1.49430000      -2.11780000       3.25370000
H       -0.68320000      -2.12070000       2.54290000
