19
Properties=species:S:1:pos:R:3 gdb_114711=T pbc="F F F"
C       -0.51440000       1.25330000       0.08370000
C       -0.16110000      -0.21340000      -0.17630000
C        0.89990000      -0.41490000      -1.28240000
C        1.34480000      -1.89180000      -1.46390000
C        0.63080000      -2.37720000      -2.71450000
O       -0.77330000      -2.13500000      -2.67920000
C        0.05330000      -1.23830000      -3.45140000
C        0.37450000       0.00970000      -2.66730000
O        0.28230000       1.13790000      -3.08210000
H        0.36480000       1.81790000       0.41350000
H       -0.89700000       1.74110000      -0.81630000
H       -1.27570000       1.33290000       0.86580000
H        0.23130000      -0.66410000       0.74400000
H       -1.05740000      -0.78330000      -0.44250000
H        1.75800000       0.22610000      -1.05570000
H        2.42730000      -1.96200000      -1.61610000
H        1.09390000      -2.51420000      -0.59900000
H        0.93530000      -3.28810000      -3.22330000
H       -0.12850000      -1.20450000      -4.52060000
