20
Properties=species:S:1:pos:R:3 gdb_85518=T pbc="F F F"
C       -0.19170000       1.53160000       0.07390000
C        0.03650000       0.02020000       0.07970000
C        0.50770000      -0.48220000      -1.29870000
C        1.03360000      -1.91520000      -1.32460000
O        1.23880000      -2.49430000      -2.36480000
C        1.27470000      -2.58640000       0.02310000
C        1.55310000      -1.64060000       1.17630000
C        2.36290000      -0.40360000       0.98690000
N        0.91600000      -0.32660000       1.20800000
H        0.74650000       2.06170000      -0.12530000
H       -0.91110000       1.81560000      -0.70060000
H       -0.56960000       1.86310000       1.04400000
H       -0.92030000      -0.46940000       0.30800000
H       -0.30120000      -0.40860000      -2.03320000
H        1.31150000       0.15640000      -1.68930000
H        0.36020000      -3.15710000       0.24640000
H        2.07100000      -3.32690000      -0.09870000
H        1.59540000      -2.13200000       2.14720000
H        2.97480000      -0.01710000       1.79720000
H        2.76620000      -0.20860000      -0.00390000
