21
Properties=species:S:1:pos:R:3 gdb_97798=T pbc="F F F"
C       -0.00590000       1.59030000      -0.29090000
C       -0.00910000       0.13170000       0.20320000
C       -1.33690000      -0.47460000       0.19350000
C       -2.44470000      -0.95170000       0.17040000
C       -3.77090000      -1.50300000       0.16400000
C       -4.34700000      -2.13500000      -1.09550000
C       -4.01560000      -3.00580000       0.07960000
C       -2.86060000      -3.96700000       0.01220000
O       -3.31380000      -5.14900000      -0.63750000
H        1.00810000       2.00110000      -0.26480000
H       -0.37820000       1.65320000      -1.31690000
H       -0.64690000       2.21390000       0.33820000
H        0.66750000      -0.46580000      -0.42170000
H        0.40730000       0.08980000       1.21830000
H       -4.48270000      -0.96210000       0.78160000
H       -5.38780000      -1.93900000      -1.32680000
H       -3.69190000      -2.18840000      -1.95770000
H       -4.85550000      -3.36770000       0.66540000
H       -2.02570000      -3.50130000      -0.53130000
H       -2.50300000      -4.18750000       1.03070000
H       -2.59490000      -5.78780000      -0.62340000
