18
Properties=species:S:1:pos:R:3 gdb_64815=T pbc="F F F"
C       -0.01570000       1.54680000       0.12860000
C       -0.00130000       0.02400000       0.05720000
C        0.84480000      -0.57780000      -1.11890000
C        1.77710000      -1.14400000      -0.02280000
O        2.79580000      -1.77830000       0.00970000
N        0.97070000      -0.62260000       0.96250000
C       -1.37420000      -0.61370000       0.17930000
C       -2.51980000      -0.00460000       0.86920000
O       -2.44070000      -0.01970000      -0.55880000
H        0.97490000       1.94660000      -0.10250000
H       -0.73850000       1.95050000      -0.58520000
H       -0.29030000       1.89610000       1.12930000
H        0.34110000      -1.33680000      -1.72030000
H        1.31320000       0.15800000      -1.77430000
H        1.07830000      -0.58990000       1.96650000
H       -1.34430000      -1.70390000       0.12560000
H       -3.28410000      -0.64910000       1.30080000
H       -2.42890000       0.97710000       1.32850000
