21
Properties=species:S:1:pos:R:3 gdb_98903=T pbc="F F F"
O        0.17160000       1.35980000       0.05320000
C        0.05980000      -0.02350000      -0.08010000
C       -1.38280000      -0.48680000       0.05700000
O       -2.25350000       0.34750000       0.20570000
C       -1.66060000      -1.97410000       0.03470000
C       -1.86680000      -2.52730000       1.47330000
C       -2.66070000      -3.81890000       1.23920000
C       -3.68500000      -3.41780000       0.16240000
C       -2.96240000      -2.36490000      -0.72280000
H       -0.74250000       1.67130000       0.15840000
H        0.42670000      -0.36990000      -1.06290000
H        0.66870000      -0.55170000       0.67310000
H       -0.79640000      -2.48440000      -0.40640000
H       -0.92460000      -2.67830000       2.00770000
H       -2.47000000      -1.81520000       2.04860000
H       -1.99110000      -4.60040000       0.85900000
H       -3.12460000      -4.20310000       2.15220000
H       -4.04450000      -4.27320000      -0.41540000
H       -4.56070000      -2.96460000       0.63870000
H       -3.58450000      -1.47970000      -0.87000000
H       -2.71950000      -2.76270000      -1.71170000
