15
Properties=species:S:1:pos:R:3 gdb_44267=T pbc="F F F"
O       -0.38640000       0.36470000       0.70440000
C       -0.12890000       1.39900000       0.18380000
O       -1.00200000       2.26970000      -0.43240000
C        0.09070000       3.20030000      -0.76920000
C        1.10140000       2.27950000      -0.05800000
C        1.60060000       3.02760000       1.20210000
C        0.53720000       4.11040000       1.48040000
C       -0.01930000       4.46220000       0.09940000
O       -0.41930000       5.53030000      -0.27640000
H        0.13650000       3.38550000      -1.84080000
H        1.88980000       1.80800000      -0.64350000
H        1.75170000       2.34350000       2.03990000
H        2.56400000       3.49660000       0.98070000
H       -0.28490000       3.70940000       2.08650000
H        0.91620000       4.99900000       1.98660000
