24
Properties=species:S:1:pos:R:3 gdb_100876=T pbc="F F F"
C        0.01530000       1.62790000       0.09610000
C       -0.00550000       0.09870000      -0.01330000
C        0.70210000      -0.45970000      -1.26400000
C        2.17580000      -0.03010000      -1.32150000
C        0.58170000      -2.01510000      -1.33290000
C       -0.86910000      -2.55780000      -1.33640000
C       -0.95560000      -4.08470000      -1.41270000
C        1.28690000      -2.52030000      -2.51850000
N        1.82100000      -2.91540000      -3.46500000
H        1.02530000       2.02000000       0.24230000
H       -0.39730000       2.09420000      -0.80560000
H       -0.59050000       1.95830000       0.94540000
H        0.45650000      -0.33930000       0.88300000
H       -1.05060000      -0.22550000      -0.00880000
H        0.19210000      -0.05930000      -2.15150000
H        2.67860000      -0.44460000      -2.19870000
H        2.26750000       1.05710000      -1.37120000
H        2.71660000      -0.37100000      -0.43000000
H        1.10070000      -2.43160000      -0.45710000
H       -1.36330000      -2.21690000      -0.42320000
H       -1.40980000      -2.10800000      -2.17760000
H       -0.50330000      -4.46690000      -2.33200000
H       -0.44090000      -4.55270000      -0.56610000
H       -1.99940000      -4.41100000      -1.38820000
