16
Properties=species:S:1:pos:R:3 gdb_30387=T pbc="F F F"
C        0.04860000       1.41410000       0.10080000
N        0.15980000      -0.02970000       0.06620000
C        0.62320000      -0.61070000      -0.97520000
C        0.73210000      -2.06940000      -1.00150000
C        1.21740000      -2.69230000      -2.08990000
O        1.38870000      -4.01760000      -2.29130000
N        1.61440000      -1.95310000      -3.18620000
C        1.50100000      -0.58460000      -3.13390000
N        1.05200000       0.08200000      -2.14200000
H        0.62580000       1.79920000       0.95180000
H        0.38590000       1.91980000      -0.81060000
H       -0.99710000       1.69000000       0.29060000
H        0.41350000      -2.62420000      -0.12800000
H        1.09910000      -4.48970000      -1.50260000
H        1.97670000      -2.42770000      -3.99700000
H        1.83400000      -0.07240000      -4.03570000
