17
Properties=species:S:1:pos:R:3 gdb_85371=T pbc="F F F"
C       -0.35590000       1.56140000       0.08330000
C        0.00610000       0.07270000       0.00700000
O        0.60650000      -0.27270000      -1.25750000
C        1.75800000       0.26720000      -1.73600000
O        1.94390000       0.25360000      -2.92830000
C        2.80420000       0.77550000      -0.81950000
C        2.98130000       0.51840000       0.48870000
C        2.09830000      -0.19670000       1.39410000
C        0.79060000      -0.40730000       1.20000000
H        0.53290000       2.18910000       0.17590000
H       -0.90750000       1.85370000      -0.81440000
H       -0.99220000       1.73930000       0.95540000
H       -0.92600000      -0.49820000      -0.03130000
H        3.57760000       1.30810000      -1.36220000
H        3.90840000       0.87490000       0.93290000
H        2.55090000      -0.55130000       2.31620000
H        0.22300000      -0.93610000       1.96080000
