15
Properties=species:S:1:pos:R:3 gdb_68702=T pbc="F F F"
C       -0.09340000       1.47540000       0.07000000
C        0.04790000      -0.00580000       0.03910000
C        1.18750000      -0.84830000      -0.38030000
C        0.61210000      -1.00580000       1.05580000
C        1.37800000      -0.84790000       2.23670000
C        2.02390000      -0.71160000       3.24220000
C       -0.74140000      -1.67100000       0.90110000
O       -1.35100000      -2.55490000       1.40130000
O       -1.16870000      -0.80100000      -0.09270000
H        0.86080000       1.93650000       0.33860000
H       -0.39340000       1.85320000      -0.91290000
H       -0.84800000       1.77490000       0.80210000
H        1.04000000      -1.64520000      -1.10170000
H        2.16530000      -0.37730000      -0.38890000
H        2.58740000      -0.59760000       4.13520000
