19
Properties=species:S:1:pos:R:3 gdb_88931=T pbc="F F F"
C       -0.23630000       1.55370000       0.27950000
C        0.42630000       0.22120000       0.00650000
C        1.88400000      -0.00690000       0.31920000
C        0.82100000      -0.74740000       1.10200000
C        0.57810000      -0.45600000       2.57950000
C        1.57550000      -1.22990000       3.41110000
O        1.40930000      -2.35400000       3.82570000
C        2.91640000      -0.54970000       3.73220000
O        3.18400000       0.58650000       3.44040000
H        0.18270000       2.05000000       1.15940000
H       -0.09480000       2.23120000      -0.56950000
H       -1.31490000       1.44220000       0.43810000
H        0.06350000      -0.26540000      -0.89560000
H        2.49570000      -0.56350000      -0.38240000
H        2.41050000       0.78720000       0.83900000
H        0.69900000      -1.79990000       0.86050000
H        0.69520000       0.61050000       2.78370000
H       -0.42740000      -0.77450000       2.87110000
H        3.60800000      -1.21780000       4.28780000
