14
Properties=species:S:1:pos:R:3 gdb_11325=T pbc="F F F"
C        0.04440000       1.42870000       0.02220000
N        0.14940000      -0.02160000       0.03830000
C        0.60600000      -0.63620000      -0.95080000
C        0.76620000      -2.14270000      -1.05750000
N        1.32470000      -2.25850000      -2.38400000
C        1.49130000      -1.06080000      -3.01050000
O        1.92260000      -0.82020000      -4.09860000
O        1.05180000      -0.06960000      -2.13330000
H        0.61920000       1.83190000       0.86280000
H        0.39270000       1.89600000      -0.90460000
H       -1.00140000       1.70720000       0.19070000
H        1.43440000      -2.51900000      -0.27460000
H       -0.20220000      -2.64500000      -0.95280000
H        1.57950000      -3.11490000      -2.84270000
