18
Properties=species:S:1:pos:R:3 gdb_41477=T pbc="F F F"
C        0.16330000       1.57320000       0.34230000
N        1.58710000       1.49710000      -0.14510000
C        1.36800000       0.10400000      -0.57290000
C        1.87390000      -0.53250000      -1.84580000
O        1.65420000      -1.92410000      -1.64750000
C        1.94120000      -2.21930000      -0.27480000
C        1.55350000      -0.98000000       0.52630000
O        0.15240000      -0.90210000       0.89740000
C       -0.09860000       0.10510000      -0.09690000
H        0.08860000       1.74700000       1.41920000
H       -0.44900000       2.31040000      -0.18740000
H        1.74350000       2.11590000      -0.93400000
H        1.32760000      -0.23600000      -2.74590000
H        2.94430000      -0.30200000      -1.99240000
H        1.37170000      -3.10880000       0.00410000
H        3.01620000      -2.42140000      -0.14370000
H        2.21310000      -0.76310000       1.37010000
H       -0.98280000      -0.10850000      -0.70170000
