22
Properties=species:S:1:pos:R:3 gdb_77926=T pbc="F F F"
C       -0.33280000       1.54210000      -0.14620000
C        0.03640000       0.06370000      -0.00120000
C        1.25980000      -0.57950000      -0.71640000
C        2.21930000       0.04320000       0.35900000
O        2.61340000       1.38910000       0.42210000
C        0.97550000      -0.52370000       1.11720000
C        0.71970000      -0.61050000       2.59420000
N        1.03150000      -1.75290000       0.21460000
C        2.07070000      -2.76390000       0.40010000
H        0.43740000       2.14430000      -0.63620000
H       -1.22820000       1.63870000      -0.76770000
H       -0.57300000       2.00180000       0.82030000
H       -0.84960000      -0.56850000      -0.09890000
H        1.41660000      -0.72240000      -1.78750000
H        3.14180000      -0.51660000       0.50360000
H        1.84130000       1.94770000       0.53350000
H        0.69260000       0.39020000       3.03900000
H       -0.23710000      -1.10260000       2.79590000
H        1.51090000      -1.17450000       3.10000000
H        1.80870000      -3.36600000       1.27660000
H        2.05100000      -3.42910000      -0.46970000
H        3.10670000      -2.41890000       0.53040000
