23
Properties=species:S:1:pos:R:3 gdb_108314=T pbc="F F F"
C        0.04340000       1.54400000       0.00600000
C       -0.15760000       0.02650000      -0.08920000
C        0.67000000      -0.58990000      -1.19230000
C        0.30860000      -0.33940000      -2.68200000
C        0.47990000      -1.86500000      -2.96570000
C        0.84870000      -2.11300000      -1.47920000
C        2.31920000      -1.87060000      -1.07530000
C        3.46870000      -2.22470000      -1.99640000
O        2.09820000      -0.43780000      -0.97090000
H        1.09940000       1.77620000       0.16900000
H       -0.27370000       2.04650000      -0.91420000
H       -0.53390000       1.96680000       0.83350000
H        0.11780000      -0.44430000       0.86260000
H       -1.21510000      -0.20770000      -0.26630000
H       -0.70910000       0.02790000      -2.84350000
H        1.01100000       0.32560000      -3.18830000
H       -0.45570000      -2.35350000      -3.24730000
H        1.23510000      -2.14050000      -3.70530000
H        0.31600000      -2.90380000      -0.95040000
H        2.51840000      -2.28380000      -0.07480000
H        3.31710000      -1.82800000      -3.00380000
H        4.40050000      -1.80270000      -1.60640000
H        3.58880000      -3.31180000      -2.06070000
