13
Properties=species:S:1:pos:R:3 gdb_2257=T pbc="F F F"
O       -0.01760000       1.44580000       0.02740000
C        0.01550000       0.07310000       0.07060000
C       -0.30100000      -0.78680000      -1.15110000
C       -1.17090000      -0.92650000       0.05390000
C       -0.46710000      -1.83840000       1.06860000
C        0.66440000      -0.77010000       1.13690000
O        1.57080000      -0.58470000       1.89690000
H        0.71240000       1.75820000      -0.51850000
H       -0.71130000      -0.19520000      -1.96390000
H        0.35270000      -1.59800000      -1.46120000
H       -2.22170000      -0.67210000       0.05780000
H       -0.96730000      -1.91320000       2.03820000
H       -0.19500000      -2.83910000       0.72120000
