21
Properties=species:S:1:pos:R:3 gdb_35030=T pbc="F F F"
C       -0.06390000      -1.20560000      -0.11240000
C       -0.02240000      -0.00590000      -0.03120000
C        0.02210000       1.44350000       0.06100000
C       -0.36610000       2.05060000       1.44330000
C        0.77580000       1.54370000       2.35120000
C        2.02130000       1.56550000       1.40700000
C        1.44410000       2.08230000       0.07100000
C        1.09180000       3.57740000       0.22630000
C       -0.15470000       3.55560000       1.17130000
H       -0.10120000      -2.26390000      -0.18600000
H       -0.59250000       1.87240000      -0.73970000
H       -1.36540000       1.79600000       1.79990000
H        0.89900000       2.17930000       3.23280000
H        0.57050000       0.52930000       2.70190000
H        2.82260000       2.21290000       1.77450000
H        2.43680000       0.56200000       1.28700000
H        2.06260000       1.85590000      -0.79900000
H        1.92760000       4.14720000       0.64220000
H        0.84520000       4.02450000      -0.74150000
H       -1.02980000       3.99170000       0.67990000
H        0.00740000       4.11370000       2.09780000
