20
Properties=species:S:1:pos:R:3 gdb_38519=T pbc="F F F"
C       -0.06220000       1.45250000      -0.15910000
C        1.48310000       1.55930000       0.07240000
C        2.05070000       2.53040000       1.13370000
C        2.34770000       1.82210000       2.49380000
C        1.18470000       0.92310000       2.85120000
C        0.81900000       0.04500000       1.92240000
C       -0.49710000      -0.48630000       1.39120000
N       -0.05440000      -0.05020000       0.00900000
C        1.37440000       0.08480000       0.51550000
H       -0.66390000       1.97600000       0.59340000
H       -0.41170000       1.74400000      -1.15280000
H        2.00940000       1.67180000      -0.87850000
H        2.96900000       3.00370000       0.76880000
H        1.33350000       3.34110000       1.30680000
H        3.27270000       1.24110000       2.39050000
H        2.53630000       2.56830000       3.27040000
H        0.59130000       1.11810000       3.74000000
H       -0.61560000      -1.57510000       1.39810000
H       -1.41830000      -0.02300000       1.76170000
H        2.10810000      -0.65800000       0.19110000
