18
Properties=species:S:1:pos:R:3 gdb_43396=T pbc="F F F"
O        0.02180000       0.03120000      -0.28990000
C        0.01210000       1.22110000      -0.03340000
C       -1.24400000       1.97390000       0.15790000
C       -1.24540000       3.30820000       0.25020000
C        0.02240000       4.10940000       0.29480000
N        1.13090000       3.27430000       0.73930000
C        1.27100000       2.04370000      -0.00100000
C        2.57640000       1.31160000       0.02790000
C        2.13540000       1.94040000      -1.26710000
H       -2.15790000       1.39010000       0.12490000
H       -2.18020000       3.86190000       0.27690000
H        0.17420000       4.56980000      -0.70390000
H       -0.09240000       4.94100000       1.00000000
H        1.99980000       3.79600000       0.73750000
H        3.39010000       1.77520000       0.57650000
H        2.51510000       0.23260000       0.10920000
H        1.79710000       1.28550000      -2.06220000
H        2.63070000       2.85010000      -1.59190000
