17
Properties=species:S:1:pos:R:3 gdb_30202=T pbc="F F F"
C       -0.42800000       1.53230000      -0.11610000
C       -0.04970000       0.06180000      -0.09630000
C        0.93720000      -0.43150000      -1.23250000
C        1.97170000      -0.52170000      -0.12710000
C        3.18470000      -0.40260000       0.41590000
O        3.00760000      -0.08640000       1.77210000
C        1.64980000       0.12500000       2.02480000
N        1.12800000       0.56440000       3.09180000
N        1.02700000      -0.29150000       0.86870000
H        0.44850000       2.16090000      -0.30270000
H       -1.16660000       1.72120000      -0.90150000
H       -0.85910000       1.82460000       0.84530000
H       -0.93310000      -0.56830000       0.03710000
H        0.65580000      -1.38300000      -1.68830000
H        1.14500000       0.30060000      -2.01470000
H        4.19960000      -0.47710000       0.07060000
H        1.84610000       0.78480000       3.77740000
