17
Properties=species:S:1:pos:R:3 gdb_67131=T pbc="F F F"
O       -0.16040000       1.41030000      -0.21840000
C       -0.00640000       0.05290000      -0.04540000
C       -1.05410000      -0.95490000      -0.34300000
C       -0.87230000      -1.76670000      -1.64270000
C        0.41940000      -1.25900000      -2.36640000
N        1.45430000      -1.53070000      -1.35990000
C        1.21610000      -0.88570000      -0.30250000
N        1.10860000      -1.57370000       0.99940000
C       -0.26930000      -0.94940000       1.03340000
H        0.48650000       1.86910000       0.32980000
H       -2.06960000      -0.60800000      -0.15680000
H       -0.77330000      -2.83970000      -1.45450000
H       -1.75070000      -1.62210000      -2.28180000
H        0.63030000      -1.82360000      -3.27650000
H        0.30220000      -0.19880000      -2.62580000
H        1.63990000      -1.08400000       1.72380000
H       -0.81820000      -0.90020000       1.96680000
