16
Properties=species:S:1:pos:R:3 gdb_31328=T pbc="F F F"
C        0.02110000       1.41880000       0.00860000
O        0.00230000       0.00130000       0.00540000
C       -1.21300000      -0.58170000       0.01280000
C       -1.37760000      -1.97150000       0.01070000
N       -2.74100000      -2.20110000       0.02010000
C       -3.41290000      -1.03110000       0.02780000
C       -2.49670000       0.01300000       0.02360000
C       -0.44910000      -3.06670000       0.00130000
O       -0.79410000      -4.23950000       0.00110000
H        1.07160000       1.71250000       0.00170000
H       -0.47660000       1.82570000      -0.88070000
H       -0.46350000       1.82150000       0.90700000
H       -3.11520000      -3.13610000       0.02050000
H       -4.49120000      -1.00060000       0.03570000
H       -2.73880000       1.06270000       0.02790000
H        0.61910000      -2.77320000      -0.00570000
