21
Properties=species:S:1:pos:R:3 gdb_58333=T pbc="F F F"
C        0.19020000       1.48660000      -0.08280000
C        0.03800000      -0.01970000       0.13590000
O        0.55240000      -0.41970000       1.39890000
C       -1.42080000      -0.49140000      -0.01220000
C       -1.53720000      -2.01430000      -0.00390000
O       -2.11530000       0.10270000       1.08950000
C       -3.51640000       0.11290000       1.00790000
C       -4.05120000       0.99770000       2.12250000
O       -5.22100000       1.13600000       2.35880000
H        1.22860000       1.78230000       0.08580000
H       -0.09000000       1.76800000      -1.10390000
H       -0.44830000       2.04100000       0.61130000
H        0.63990000      -0.55570000      -0.60730000
H       -0.07110000      -0.08950000       2.05740000
H       -1.83400000      -0.08780000      -0.95080000
H       -1.02720000      -2.43270000      -0.87740000
H       -1.06650000      -2.41670000       0.89620000
H       -2.57920000      -2.34400000      -0.04160000
H       -3.86520000       0.52280000       0.04460000
H       -3.96180000      -0.88770000       1.11310000
H       -3.25500000       1.51660000       2.70140000
