19
Properties=species:S:1:pos:R:3 gdb_103220=T pbc="F F F"
C        0.04560000       1.60900000       0.13390000
C       -0.13620000       0.09940000      -0.06900000
C        0.64190000      -0.45930000      -1.25760000
O        0.21790000       0.10640000      -2.48710000
C        2.17380000      -0.66660000      -1.11650000
C        1.98250000      -2.02650000      -0.37540000
O        2.86390000      -2.77550000      -1.26220000
C        2.14960000      -1.85050000      -2.13620000
C        0.78930000      -1.98500000      -1.38190000
H        1.09990000       1.87180000       0.27400000
H       -0.33620000       2.18130000      -0.71940000
H       -0.50190000       1.95340000       1.01570000
H        0.17300000      -0.42790000       0.84120000
H       -1.19930000      -0.12500000      -0.21900000
H        0.35700000       1.05800000      -2.44810000
H        2.98100000       0.05140000      -0.96800000
H        1.99580000      -2.25610000       0.68880000
H        2.36120000      -1.86100000      -3.20240000
H        0.02500000      -2.74680000      -1.53300000
