21
Properties=species:S:1:pos:R:3 gdb_102594=T pbc="F F F"
C        0.02520000       1.64280000      -0.18180000
O       -0.11830000       0.25330000       0.01900000
C        0.55610000      -0.55600000      -0.93090000
C        2.04030000      -0.76660000      -0.57800000
O        2.76150000      -1.33440000      -1.65080000
C       -0.21030000      -1.87660000      -0.93760000
C       -1.49450000      -1.96170000      -1.78600000
C       -0.71230000      -2.99030000      -2.62810000
O        0.44050000      -2.88940000      -1.75650000
H        1.07010000       1.97480000      -0.10620000
H       -0.36320000       1.95140000      -1.16430000
H       -0.55450000       2.14030000       0.59960000
H        0.51240000      -0.09970000      -1.93360000
H        2.50370000       0.20110000      -0.35870000
H        2.10790000      -1.37280000       0.34090000
H        2.27070000      -2.12630000      -1.91260000
H       -0.31170000      -2.22130000       0.09870000
H       -2.36740000      -2.35700000      -1.26600000
H       -1.76920000      -1.03860000      -2.29870000
H       -1.11350000      -4.00940000      -2.64020000
H       -0.47280000      -2.68780000      -3.65380000
