16
Properties=species:S:1:pos:R:3 gdb_126817=T pbc="F F F"
C        0.01010000       1.53550000      -0.08150000
C       -0.02220000       0.01570000       0.07840000
N       -1.39100000      -0.51740000       0.04730000
N       -1.95650000      -0.75670000       1.22140000
C       -3.17790000      -1.22040000       1.20590000
C       -3.84440000      -1.46050000      -0.02770000
N       -3.30570000      -1.22580000      -1.18600000
C       -2.01940000      -0.69830000      -1.21720000
O       -1.42610000      -0.39940000      -2.23000000
H        1.04530000       1.88670000      -0.04380000
H       -0.41770000       1.82570000      -1.04330000
H       -0.54780000       2.02350000       0.72310000
H        0.52250000      -0.46390000      -0.73690000
H        0.39930000      -0.29450000       1.03580000
H       -3.63720000      -1.41780000       2.16660000
H       -4.85620000      -1.86750000      -0.01900000
