21
Properties=species:S:1:pos:R:3 gdb_119583=T pbc="F F F"
C       -0.13400000       1.46310000      -0.46750000
O       -0.25630000       0.12650000      -0.89260000
C        0.85130000      -0.66760000      -0.52410000
C        0.58480000      -2.07460000      -0.95350000
O        1.70700000      -2.96470000      -1.00140000
C        0.90750000      -2.80960000      -2.18690000
C       -0.31270000      -3.72240000      -2.02830000
C       -0.67540000      -2.93340000      -0.71260000
C       -0.76060000      -3.70230000       0.59760000
H       -0.04510000       1.53670000       0.62810000
H        0.74350000       1.95570000      -0.91540000
H       -1.03600000       1.99100000      -0.78570000
H        1.78110000      -0.31170000      -0.99680000
H        1.00630000      -0.62830000       0.56900000
H        1.42210000      -2.48970000      -3.08600000
H       -1.05810000      -3.59800000      -2.81700000
H       -0.07690000      -4.78310000      -1.90890000
H       -1.56930000      -2.32510000      -0.87430000
H        0.16580000      -4.25600000       0.77610000
H       -0.92600000      -3.02790000       1.44530000
H       -1.58870000      -4.41880000       0.57960000
