14
Properties=species:S:1:pos:R:3 gdb_26918=T pbc="F F F"
O       -0.03160000       1.36310000       0.00790000
C       -0.04190000       0.01450000       0.00090000
C       -1.22620000      -0.67940000       0.00380000
O       -2.40110000       0.03020000       0.01410000
C       -1.14930000      -2.09020000      -0.00400000
C        0.03500000      -2.77630000      -0.01420000
C        1.29860000      -2.08630000      -0.01750000
O        2.42680000      -2.55440000      -0.02630000
N        1.13570000      -0.67370000      -0.00920000
H        0.87090000       1.69890000       0.00440000
H       -3.13310000      -0.59340000       0.01390000
H       -2.08440000      -2.64740000      -0.00170000
H        0.06730000      -3.85740000      -0.02010000
H        2.01590000      -0.17490000      -0.01140000
