15
Properties=species:S:1:pos:R:3 gdb_130268=T pbc="F F F"
N        0.15760000       1.45100000       0.10640000
C        0.11220000       0.06970000       0.07500000
N       -1.02120000      -0.57720000       0.24910000
O       -0.67130000      -1.93720000       0.24120000
C        0.65260000      -2.05240000       0.04540000
C        1.20630000      -3.43620000       0.04770000
C        1.34230000      -3.99580000       1.46480000
O        2.30750000      -4.59400000       1.85510000
C        1.21930000      -0.82310000      -0.06470000
H        0.83250000       1.86270000      -0.52130000
H       -0.75400000       1.87900000       0.01520000
H        0.51880000      -4.09830000      -0.49580000
H        2.18260000      -3.47530000      -0.43870000
H        0.46000000      -3.81180000       2.11470000
H        2.25920000      -0.58100000      -0.20880000
