11
Properties=species:S:1:pos:R:3 gdb_3828=T pbc="F F F"
N       -0.06420000       1.31380000       0.00810000
C       -0.05850000       0.03600000       0.00140000
C       -1.27180000      -0.76010000       0.00410000
C       -1.15800000      -2.09860000      -0.00340000
N        0.09410000      -2.66000000      -0.01320000
N        1.24600000      -1.94080000      -0.01610000
N        1.18930000      -0.68450000      -0.00930000
H        0.90310000       1.64680000       0.00440000
H       -2.23330000      -0.26530000       0.01200000
H       -1.99060000      -2.79180000      -0.00220000
H        0.24730000      -3.65440000      -0.01920000
