21
Properties=species:S:1:pos:R:3 gdb_39470=T pbc="F F F"
C       -0.00870000       1.52580000      -0.15870000
C        1.48750000       1.89410000      -0.01770000
C        1.92480000       2.13380000       1.45340000
C        1.14270000       1.33660000       2.51450000
O        1.03740000      -0.05420000       2.26480000
C       -0.07150000      -0.45620000       1.48580000
C       -0.01640000      -0.01420000       0.00340000
C        1.31470000      -0.38400000      -0.61780000
C        2.14550000       0.65580000      -0.60370000
H       -0.66130000       2.04450000       0.55000000
H       -0.35010000       1.78040000      -1.16690000
H        1.73670000       2.79080000      -0.59610000
H        2.99270000       1.90570000       1.54830000
H        1.81030000       3.19590000       1.70850000
H        1.66000000       1.43520000       3.47590000
H        0.13780000       1.76700000       2.64740000
H       -0.08430000      -1.55020000       1.54540000
H       -1.00830000      -0.08530000       1.93530000
H       -0.87570000      -0.47410000      -0.49990000
H        1.56250000      -1.39300000      -0.92770000
H        3.18630000       0.64230000      -0.90950000
