20
Properties=species:S:1:pos:R:3 gdb_14742=T pbc="F F F"
C       -0.10940000       1.53350000       0.01110000
C       -0.02250000       0.01660000       0.00230000
O       -1.33360000      -0.51000000       0.01230000
C       -1.37140000      -1.91790000       0.00500000
C       -2.84310000      -2.34550000       0.01660000
C       -3.00010000      -3.79480000       0.01050000
C       -3.09930000      -4.99470000       0.00500000
C       -3.23530000      -6.44460000      -0.00170000
H        0.89250000       1.97310000       0.00380000
H       -0.65270000       1.89160000      -0.86790000
H       -0.63570000       1.88230000       0.90420000
H        0.52150000      -0.33480000      -0.89100000
H        0.53870000      -0.34410000       0.88120000
H       -0.86930000      -2.32170000      -0.88920000
H       -0.85250000      -2.33130000       0.88510000
H       -3.32270000      -1.90940000       0.90140000
H       -3.33930000      -1.90000000      -0.85420000
H       -4.28910000      -6.74470000       0.00810000
H       -2.77530000      -6.88540000      -0.89320000
H       -2.75620000      -6.89530000       0.87460000
