21
Properties=species:S:1:pos:R:3 gdb_50762=T pbc="F F F"
O       -1.08720000       1.73550000       0.93450000
C       -0.37060000       1.55810000      -0.01800000
C        1.10950000       1.87990000      -0.07010000
C        1.41410000       2.74840000      -1.31260000
C        2.91520000       2.83880000      -1.63960000
C        3.72280000       3.86130000      -0.81550000
C        3.28890000       4.01040000       0.65130000
O        2.96840000       2.78340000       1.28580000
C        1.59160000       2.45920000       1.26580000
H       -0.77660000       1.12850000      -0.96470000
H        1.61410000       0.91370000      -0.23620000
H        0.89350000       2.30460000      -2.17080000
H        0.98280000       3.75000000      -1.18360000
H        3.35160000       1.84260000      -1.50490000
H        3.03730000       3.08070000      -2.70120000
H        4.78070000       3.57940000      -0.85820000
H        3.65270000       4.85480000      -1.27710000
H        4.10440000       4.46290000       1.22720000
H        2.42950000       4.69390000       0.72300000
H        0.98550000       3.34100000       1.52200000
H        1.43410000       1.72220000       2.05810000
