19
Properties=species:S:1:pos:R:3 gdb_15364=T pbc="F F F"
C        0.08740000      -2.86250000      -0.35830000
C        0.86200000      -1.53960000      -0.39920000
C        1.28730000      -1.09910000       0.98750000
C        2.61990000      -1.46970000       1.54660000
N        2.30460000      -0.07640000       1.23400000
C        2.99820000       0.55140000       0.12330000
C        4.14890000       1.39870000       0.64780000
O        5.13570000       1.66310000       0.01290000
H       -0.80390000      -2.77880000       0.27280000
H       -0.23980000      -3.15800000      -1.35930000
H        0.70660000      -3.66900000       0.04750000
H        1.73580000      -1.64740000      -1.05020000
H        0.23110000      -0.76160000      -0.84920000
H        0.45630000      -1.02810000       1.69030000
H        2.74580000      -1.70650000       2.59970000
H        3.30330000      -1.99440000       0.87880000
H        3.39540000      -0.12880000      -0.64450000
H        2.30530000       1.24210000      -0.38030000
H        3.98910000       1.77300000       1.68320000
