16
Properties=species:S:1:pos:R:3 gdb_125408=T pbc="F F F"
C        0.04010000       1.51530000       0.04970000
C       -0.00360000       0.02040000       0.00480000
C       -0.04880000      -0.81360000      -1.06620000
O       -0.08670000      -2.09890000      -0.67860000
N       -0.06660000      -2.14690000       0.70780000
C       -0.02080000      -0.89660000       1.10580000
C        0.05530000      -0.57110000       2.56870000
C        1.48070000      -0.17210000       2.93340000
O        1.80960000       0.93340000       3.27440000
H        0.86830000       1.87310000       0.66920000
H        0.15850000       1.93490000      -0.95240000
H       -0.88060000       1.92970000       0.47650000
H       -0.05970000      -0.64380000      -2.13210000
H       -0.61320000       0.25350000       2.82980000
H       -0.21820000      -1.46410000       3.14060000
H        2.22050000      -0.99670000       2.83420000
