17
Properties=species:S:1:pos:R:3 gdb_7767=T pbc="F F F"
C        0.02270000       1.48250000      -0.00710000
N        0.02190000       0.03150000      -0.02340000
C        0.60890000      -0.50680000      -1.23750000
C        0.65970000      -2.00420000      -1.22860000
C        0.55940000      -2.72450000      -0.10660000
C        0.49100000      -2.06300000       1.20870000
O        0.42510000      -2.67760000       2.25320000
C        0.59770000      -0.53970000       1.18530000
H        1.04020000       1.91880000       0.01310000
H       -0.49050000       1.86320000      -0.89630000
H       -0.51590000       1.84090000       0.87540000
H        0.01370000      -0.16670000      -2.09510000
H        1.63920000      -0.12410000      -1.42070000
H        0.78970000      -2.49020000      -2.19220000
H        0.57510000      -3.80940000      -0.10430000
H        1.67210000      -0.28210000       1.31350000
H        0.07300000      -0.15080000       2.06220000
