15
Properties=species:S:1:pos:R:3 gdb_10288=T pbc="F F F"
C       -0.26050000       1.35370000       0.08210000
O        0.08060000      -0.01740000      -0.05180000
C        0.84520000      -0.51930000       0.99540000
C        0.08790000      -0.59750000       2.26370000
N       -0.51580000      -0.65720000       3.24760000
C        1.40220000      -1.92250000       0.59190000
C        2.11690000      -2.68430000       1.68450000
O        1.27510000      -2.31380000      -0.53380000
H        0.63890000       1.98260000       0.15470000
H       -0.81500000       1.62230000      -0.81820000
H       -0.89150000       1.53170000       0.96290000
H        1.73180000       0.11360000       1.19130000
H        1.38680000      -3.06180000       2.40870000
H        2.65750000      -3.52280000       1.24490000
H        2.80690000      -2.03720000       2.23620000
