15
Properties=species:S:1:pos:R:3 gdb_24252=T pbc="F F F"
C        0.01940000       1.45700000      -0.00050000
C        1.26290000       0.65000000       0.04960000
C        1.96320000       0.36200000       1.40640000
C        0.86100000      -0.38740000       2.10100000
C       -0.17710000      -0.54310000       1.26170000
O       -1.17140000      -1.22030000       1.87730000
C       -0.63830000      -1.44460000       3.12780000
N        0.55510000      -0.97260000       3.31960000
N       -0.09020000      -0.02990000      -0.04040000
H       -0.31650000       1.94860000       0.90850000
H       -0.25990000       1.94930000      -0.92690000
H        1.85920000       0.56990000      -0.85250000
H        2.86460000      -0.24170000       1.25050000
H        2.27260000       1.28250000       1.91330000
H       -1.26390000      -1.99250000       3.81360000
