18
Properties=species:S:1:pos:R:3 gdb_118640=T pbc="F F F"
O        0.07170000       1.25090000      -0.02520000
C       -0.01960000      -0.15510000      -0.16280000
C       -1.50290000      -0.51640000      -0.09960000
N       -2.27390000      -0.00000000      -1.22070000
C       -2.28710000      -0.73410000      -2.47180000
C       -3.17060000      -1.97030000      -2.39920000
O       -2.91330000      -3.01780000      -2.93040000
C       -2.81390000       1.25940000      -1.18120000
O       -3.36640000       1.80420000      -2.11260000
H        0.96170000       1.53050000      -0.25640000
H        0.41260000      -0.49950000      -1.11420000
H        0.50640000      -0.68040000       0.65010000
H       -1.61570000      -1.60470000      -0.05350000
H       -1.91690000      -0.10490000       0.82670000
H       -2.71150000      -0.05610000      -3.22340000
H       -1.28320000      -1.03010000      -2.79430000
H       -4.10200000      -1.82090000      -1.80610000
H       -2.69990000       1.72460000      -0.18690000
