22
Properties=species:S:1:pos:R:3 gdb_8064=T pbc="F F F"
C       -0.03110000       1.59760000       0.01360000
C       -0.19570000       0.07530000      -0.08300000
C        0.62020000      -0.52450000      -1.22180000
C        2.16640000      -0.73730000      -1.12740000
C        1.90350000      -1.96570000      -0.21220000
C        0.85070000      -2.07210000      -1.36280000
C       -0.19740000      -3.13770000      -1.55150000
C        2.02040000      -1.70950000      -2.33130000
H        1.00820000       1.87080000       0.22490000
H       -0.31570000       2.08680000      -0.92470000
H       -0.65480000       2.01630000       0.80970000
H        0.06380000      -0.37730000       0.87970000
H       -1.25490000      -0.16210000      -0.25180000
H        0.31300000      -0.05510000      -2.16670000
H        2.93270000       0.02810000      -0.99620000
H        2.68140000      -2.73540000      -0.20390000
H        1.53580000      -1.78280000       0.79900000
H       -0.90090000      -3.15520000      -0.71140000
H       -0.77450000      -2.96600000      -2.46720000
H        0.25850000      -4.13140000      -1.62480000
H        1.74150000      -1.26760000      -3.29300000
H        2.80510000      -2.46290000      -2.44810000
