15
Properties=species:S:1:pos:R:3 gdb_12607=T pbc="F F F"
C       -0.00690000       1.44930000      -0.01070000
N        0.01810000       0.00060000      -0.01450000
C        0.06670000      -0.75840000      -1.18870000
N        0.01080000      -0.22080000      -2.33950000
N        0.21000000      -2.08620000      -0.79670000
C        0.01800000      -2.22760000       0.63780000
C       -0.00620000      -0.77630000       1.12250000
O       -0.04300000      -0.38570000       2.26480000
H        0.87780000       1.84440000      -0.51580000
H       -0.89340000       1.81570000      -0.53410000
H       -0.02310000       1.76900000       1.03180000
H        0.07880000      -0.91850000      -3.07780000
H       -0.15020000      -2.79030000      -1.42020000
H       -0.92800000      -2.71400000       0.90870000
H        0.83260000      -2.77280000       1.12560000
