18
Properties=species:S:1:pos:R:3 gdb_30292=T pbc="F F F"
O       -0.25440000       1.50820000      -0.20790000
C        0.07000000       0.13020000       0.00170000
C       -1.19350000      -0.78410000       0.17450000
C       -1.39940000      -1.59530000      -1.14760000
C       -0.06190000      -1.41050000      -1.78890000
C        0.75910000      -0.50260000      -1.17020000
C        1.96660000      -0.42310000      -1.92250000
C        1.82700000      -1.30170000      -2.97410000
N        0.58140000      -1.90000000      -2.88900000
H       -0.49750000       1.59930000      -1.13550000
H        0.66290000       0.13550000       0.92220000
H       -1.02180000      -1.48220000       0.99930000
H       -2.05980000      -0.17230000       0.43670000
H       -1.65280000      -2.64150000      -0.94070000
H       -2.21770000      -1.19270000      -1.75970000
H        2.83350000       0.18930000      -1.72690000
H        2.50530000      -1.56020000      -3.77190000
H        0.23050000      -2.59130000      -3.52860000
