18
Properties=species:S:1:pos:R:3 gdb_7503=T pbc="F F F"
O       -0.16500000       1.44580000       0.09870000
C        0.00680000       0.03720000       0.03410000
C       -1.38050000      -0.58200000      -0.09440000
C       -1.37100000      -2.10390000      -0.08220000
O       -0.54430000      -2.53170000      -1.13930000
C       -1.15210000      -2.75310000       1.31420000
O       -2.55010000      -3.08240000       1.41490000
C       -2.77940000      -2.74420000       0.03350000
H        0.70550000       1.85370000       0.09610000
H        0.62180000      -0.25790000      -0.82600000
H        0.50650000      -0.34240000       0.94110000
H       -2.00920000      -0.22390000       0.72790000
H       -1.83790000      -0.23550000      -1.02820000
H       -0.52880000      -3.49470000      -1.14670000
H       -0.51430000      -3.64980000       1.27940000
H       -0.81790000      -2.10800000       2.13420000
H       -3.64770000      -2.08870000      -0.09760000
H       -2.90180000      -3.63630000      -0.59970000
