16
Properties=species:S:1:pos:R:3 gdb_67062=T pbc="F F F"
N        1.72210000       0.68720000      -0.83690000
C        0.55860000       0.48890000      -0.00730000
C       -0.67040000      -0.10810000      -0.62420000
C       -0.59170000      -1.60350000      -1.09480000
C       -1.92740000      -1.83820000      -0.37420000
C       -1.87260000      -0.46020000       0.30840000
O       -2.73600000      -2.71890000      -0.38950000
C        0.62050000       0.84870000       1.26080000
O        0.72480000       1.17640000       2.37750000
H        1.97050000       1.66380000      -0.94860000
H        2.53730000       0.18420000      -0.50660000
H       -0.99920000       0.52250000      -1.45760000
H       -0.57710000      -1.80520000      -2.16820000
H        0.22480000      -2.15830000      -0.62050000
H       -1.59660000      -0.55500000       1.36540000
H       -2.77330000       0.15380000       0.24020000
