13
Properties=species:S:1:pos:R:3 gdb_19228=T pbc="F F F"
O       -0.13670000       0.06600000       0.25990000
C       -0.00850000       1.25240000       0.11000000
N        1.17890000       1.89680000      -0.18370000
C        1.49080000       3.33220000      -0.15740000
C        2.19070000       3.67670000       1.11490000
C        2.96640000       2.99560000      -0.01500000
C        2.56620000       1.53230000      -0.09180000
O        3.11830000       0.47970000      -0.11570000
H       -0.84660000       1.97770000       0.16650000
H        1.02150000       4.01900000      -0.84760000
H        2.44810000       4.72160000       1.26100000
H        1.95700000       3.13010000       2.02310000
H        3.82620000       3.44660000      -0.48730000
