19
Properties=species:S:1:pos:R:3 gdb_35814=T pbc="F F F"
N       -0.02520000      -1.15890000       0.08160000
C       -0.03960000      -0.00260000       0.10160000
C       -0.02950000       1.45300000       0.13750000
C       -0.53510000       2.05990000       1.47180000
C        0.14530000       3.44600000       1.47100000
N        1.46360000       3.25400000       0.86820000
C        2.47790000       2.56020000       1.71390000
C        2.59000000       1.42140000       0.67070000
C        1.39370000       2.08140000      -0.05430000
H       -0.66990000       1.80930000      -0.67740000
H       -1.62540000       2.10380000       1.51920000
H       -0.18970000       1.45340000       2.31450000
H       -0.43360000       4.15160000       0.86130000
H        0.24020000       3.87720000       2.47140000
H        3.37660000       3.16200000       1.87890000
H        2.09660000       2.23480000       2.69050000
H        3.51130000       1.43210000       0.08670000
H        2.42150000       0.40850000       1.03990000
H        1.55050000       2.32620000      -1.10820000
