16
Properties=species:S:1:pos:R:3 gdb_125419=T pbc="F F F"
C       -0.05450000       1.50690000      -0.01760000
C       -0.01630000       0.00480000      -0.03630000
N       -0.01900000      -0.60380000      -1.17250000
C        0.00260000      -2.00130000      -1.21690000
N        0.01600000      -2.59920000      -2.34820000
N       -0.00010000      -2.62840000       0.03200000
N        0.03560000      -2.02490000       1.24110000
C        0.01590000      -0.73030000       1.22930000
N       -0.06500000      -0.04530000       2.44060000
H        0.86380000       1.91830000       0.42170000
H       -0.14960000       1.87940000      -1.03730000
H       -0.89150000       1.86460000       0.59150000
H        0.03380000      -3.61290000      -2.22890000
H        0.00570000      -3.63510000       0.07970000
H        0.08360000      -0.65920000       3.23180000
H        0.51540000       0.78030000       2.49950000
