19
Properties=species:S:1:pos:R:3 gdb_68962=T pbc="F F F"
C       -0.03760000       1.51170000      -0.01330000
C        0.04940000       0.00530000      -0.01700000
C       -0.78590000      -0.78790000       0.94470000
C        0.73650000      -0.77820000       1.12750000
C        1.43060000      -1.92130000       0.45100000
C        1.24710000      -1.90280000      -0.86920000
C        0.44570000      -0.70170000      -1.31860000
C        1.31370000      -0.15010000       2.27580000
C        1.80520000       0.37390000       3.24180000
H        0.87870000       1.96000000      -0.41270000
H       -0.87570000       1.85590000      -0.63060000
H       -0.18260000       1.89770000       0.99930000
H       -1.36270000      -0.22480000       1.67100000
H       -1.23160000      -1.72570000       0.62850000
H        1.98150000      -2.66610000       1.01240000
H        1.60660000      -2.65610000      -1.56060000
H       -0.43380000      -0.98670000      -1.91070000
H        1.04530000      -0.03970000      -1.95900000
H        2.24020000       0.83490000       4.09330000
