16
Properties=species:S:1:pos:R:3 gdb_8813=T pbc="F F F"
C       -0.01610000       1.35370000      -0.04980000
O       -0.02520000      -0.07950000      -0.07240000
C       -1.23200000      -0.63770000      -0.06080000
O       -2.27490000      -0.02080000      -0.03990000
C       -1.19180000      -2.15160000      -0.07060000
N       -2.45080000      -2.68170000      -0.21160000
N       -0.07740000      -2.76510000       0.02110000
C       -0.12360000      -4.21490000       0.00510000
H        1.03500000       1.64000000      -0.06090000
H       -0.53390000       1.75550000      -0.92450000
H       -0.50730000       1.72760000       0.85210000
H       -3.21020000      -2.03060000      -0.07960000
H       -2.60910000      -3.63500000       0.06660000
H       -0.67210000      -4.62380000       0.87040000
H       -0.61090000      -4.60510000      -0.90240000
H        0.89230000      -4.61440000       0.04370000
