21
Properties=species:S:1:pos:R:3 gdb_95374=T pbc="F F F"
C       -0.33250000       1.56090000      -0.06110000
C        0.14840000       0.11160000      -0.07890000
C        1.25060000      -0.17890000      -1.10690000
O        1.83730000      -1.40370000      -0.68880000
C        1.82170000      -1.48020000       0.72320000
O        3.05460000      -1.12910000       1.30980000
C        3.02270000       0.24190000       1.69220000
C        1.57520000       0.49130000       2.13220000
C        0.75500000      -0.45960000       1.23130000
H        0.49210000       2.26380000       0.09530000
H       -0.80450000       1.82060000      -1.01460000
H       -1.07160000       1.72860000       0.72880000
H       -0.70440000      -0.52940000      -0.33340000
H        0.87130000      -0.31780000      -2.12370000
H        1.99510000       0.63330000      -1.13180000
H        1.64830000      -2.52910000       0.97530000
H        3.75510000       0.38250000       2.49180000
H        3.30980000       0.89130000       0.85140000
H        1.45440000       0.19640000       3.17860000
H        1.28170000       1.53980000       2.05160000
H       -0.02010000      -0.95860000       1.81540000
