12
Properties=species:S:1:pos:R:3 gdb_20147=T pbc="F F F"
O        0.00470000       0.01720000       0.16190000
C       -0.01390000       1.19490000       0.02460000
N       -1.20000000       2.02740000      -0.07210000
C       -0.83320000       3.33340000       0.51750000
C       -0.83360000       3.16260000      -0.94670000
C        0.74040000       3.18700000      -0.95000000
C        0.74080000       3.35780000       0.51420000
N        1.14550000       2.06380000      -0.07710000
H       -1.51450000       3.81680000       1.20240000
H       -1.51540000       3.47550000      -1.72400000
H        1.40880000       3.52080000      -1.73020000
H        1.40970000       3.86210000       1.19620000
