20
Properties=species:S:1:pos:R:3 gdb_59887=T pbc="F F F"
C        0.13000000       1.48570000      -0.29900000
C        0.03200000      -0.02030000      -0.07980000
C       -1.39600000      -0.54540000      -0.10340000
O        0.73040000      -0.71710000      -1.14590000
C        2.06300000      -0.84960000      -1.00350000
O        2.71670000      -0.41870000      -0.08340000
N        2.57480000      -1.62390000      -2.03960000
C        2.46370000      -1.25360000      -3.43860000
C        3.78590000      -1.24220000      -2.73160000
H        1.17320000       1.80710000      -0.27060000
H       -0.30590000       1.76370000      -1.26420000
H       -0.41390000       2.01630000       0.48880000
H        0.52560000      -0.28430000       0.85960000
H       -1.87900000      -0.31280000      -1.05760000
H       -1.41280000      -1.62940000       0.03600000
H       -1.97880000      -0.08340000       0.69890000
H        2.21260000      -2.06000000      -4.12150000
H        2.00600000      -0.29580000      -3.67040000
H        4.22020000      -0.27910000      -2.47750000
H        4.50130000      -2.04120000      -2.90200000
