21
Properties=species:S:1:pos:R:3 gdb_103158=T pbc="F F F"
C       -0.14270000       1.51350000      -0.01770000
N        0.18770000       0.08810000       0.03680000
C        0.81260000      -0.46490000      -1.15900000
C        2.19570000       0.09830000      -1.50150000
C        0.70700000      -2.02560000      -1.24120000
C        0.08570000      -2.80320000      -0.10570000
O       -0.21520000      -1.89240000      -2.38220000
C       -0.14830000      -0.52410000      -2.34280000
N       -0.69330000       0.34260000      -3.07010000
H        0.72710000       2.18500000      -0.10010000
H       -0.79050000       1.69670000      -0.87740000
H       -0.68910000       1.77930000       0.89200000
H        0.79330000      -0.09040000       0.83270000
H        2.89040000      -0.06870000      -0.66970000
H        2.61210000      -0.37790000      -2.39460000
H        2.13910000       1.17250000      -1.69450000
H        1.63170000      -2.49570000      -1.59210000
H       -0.80630000      -2.29680000       0.26560000
H       -0.17870000      -3.80910000      -0.44540000
H        0.79980000      -2.90470000       0.71920000
H       -1.28310000      -0.09100000      -3.78350000
