17
Properties=species:S:1:pos:R:3 gdb_88816=T pbc="F F F"
O       -0.56350000       0.85530000       1.51760000
C       -0.16740000       0.08320000       0.43140000
C       -0.67700000      -1.30850000       0.17430000
C       -1.06220000      -0.17280000      -0.76510000
C       -2.45340000       0.39580000      -0.79340000
O       -3.38410000      -0.27810000      -1.69440000
C       -4.38540000      -0.47420000      -0.67940000
C       -3.42050000       0.08970000       0.35730000
O       -3.37770000       0.16600000       1.55290000
H       -1.45910000       0.60820000       1.79370000
H        0.87720000       0.27880000       0.21140000
H        0.00750000      -2.06660000      -0.19010000
H       -1.43820000      -1.68910000       0.84800000
H       -0.58900000      -0.15700000      -1.74340000
H       -2.42370000       1.47200000      -1.02220000
H       -5.29120000       0.12620000      -0.83880000
H       -4.66550000      -1.52580000      -0.54220000
