17
Properties=species:S:1:pos:R:3 gdb_53402=T pbc="F F F"
C        0.16890000       1.54860000      -0.09130000
C        0.11170000       0.09680000      -0.02480000
C        0.06130000      -1.10490000       0.03260000
C        0.01410000      -2.55170000       0.10120000
O        0.12090000      -3.07840000       1.44950000
C       -1.22970000      -3.57230000       1.43530000
C       -1.38900000      -3.25100000      -0.07340000
C       -2.53080000      -2.47950000      -0.50390000
C       -3.49130000      -1.84750000      -0.85440000
H        1.19860000       1.90320000      -0.21020000
H       -0.41390000       1.92570000      -0.93870000
H       -0.23810000       2.00170000       0.81920000
H        0.78990000      -2.98780000      -0.53930000
H       -1.28640000      -4.63090000       1.70920000
H       -1.89190000      -2.98690000       2.08340000
H       -1.28290000      -4.14800000      -0.68920000
H       -4.33600000      -1.28410000      -1.16500000
