19
Properties=species:S:1:pos:R:3 gdb_114150=T pbc="F F F"
C       -0.09700000       1.57260000      -0.01710000
C        0.02540000       0.06460000       0.18750000
N       -1.24770000      -0.60350000      -0.04690000
C       -1.76450000      -0.73760000      -1.43660000
C       -1.95650000      -2.24750000      -1.21510000
C       -0.62260000      -2.87180000      -0.84500000
C       -1.33990000      -2.03830000       0.17610000
C       -3.09920000      -3.00320000      -1.59880000
N       -4.03030000      -3.60900000      -1.92540000
H        0.85630000       2.06780000       0.18970000
H       -0.37720000       1.81090000      -1.04890000
H       -0.86100000       1.98980000       0.64470000
H        0.83430000      -0.33220000      -0.45370000
H        0.31390000      -0.14930000       1.22370000
H       -2.69630000      -0.18700000      -1.58850000
H       -1.05340000      -0.48070000      -2.23270000
H       -0.65650000      -3.94280000      -0.67550000
H        0.27700000      -2.51380000      -1.33710000
H       -1.66720000      -2.43630000       1.13060000
