18
Properties=species:S:1:pos:R:3 gdb_91612=T pbc="F F F"
O        0.10230000       1.40430000      -0.11720000
C        0.03110000       0.00730000       0.01620000
C        0.62580000      -0.57450000       1.34960000
C       -0.54570000      -1.40300000       1.89940000
C       -1.19590000      -1.97100000       0.62960000
C       -1.42420000      -0.56530000       0.04080000
C       -2.06810000       0.12400000       1.22210000
N       -2.85180000       1.11700000       1.18800000
O       -1.55730000      -0.45310000       2.35340000
H       -0.67480000       1.79380000       0.30690000
H        0.56330000      -0.40730000      -0.84560000
H        1.50440000      -1.19950000       1.16800000
H        0.90940000       0.23030000       2.03100000
H       -0.33410000      -2.07930000       2.72570000
H       -0.51830000      -2.58890000       0.03530000
H       -2.11810000      -2.52070000       0.83090000
H       -1.97400000      -0.45550000      -0.89030000
H       -3.07890000       1.42690000       2.13540000
