21
Properties=species:S:1:pos:R:3 gdb_62560=T pbc="F F F"
C       -0.07020000       1.57020000      -0.06690000
C        0.07420000       0.06700000      -0.06960000
O       -1.05400000      -0.53310000       0.52010000
C        0.69040000      -0.76590000      -1.19410000
C       -0.07710000      -1.82860000      -1.92490000
C        1.93820000      -0.06280000      -1.75600000
C        2.59870000      -0.06840000      -0.33690000
C        1.33390000      -0.72230000       0.20470000
O        1.30240000      -1.72480000       1.17680000
H        0.77550000       2.07250000      -0.54120000
H       -0.97960000       1.85810000      -0.60480000
H       -0.16070000       1.94220000       0.95910000
H       -0.72500000      -1.26650000       1.05880000
H       -0.48320000      -1.42890000      -2.86230000
H        0.55760000      -2.68500000      -2.17880000
H       -0.91790000      -2.18270000      -1.32440000
H        2.48300000      -0.69410000      -2.46240000
H        1.77870000       0.91530000      -2.21960000
H        3.45540000      -0.74490000      -0.29190000
H        2.88590000       0.89630000       0.09450000
H        1.52230000      -1.32440000       2.02770000
