15
Properties=species:S:1:pos:R:3 gdb_80261=T pbc="F F F"
O        0.12630000       1.36220000      -0.09830000
C        0.01760000      -0.02200000      -0.00480000
C        0.29960000      -0.64060000       1.38840000
O       -0.80520000      -0.04280000       2.16160000
C       -1.90840000      -0.07130000       1.34410000
O       -2.98830000       0.30930000       1.68450000
C       -1.43130000      -0.64180000      -0.00080000
C       -1.07420000      -2.09070000       0.29010000
C       -0.02690000      -2.09280000       1.12370000
H       -0.27200000       1.76030000       0.68620000
H        0.63330000      -0.45350000      -0.79450000
H        1.22710000      -0.38320000       1.89350000
H       -2.10010000      -0.43120000      -0.83050000
H       -1.62110000      -2.93820000      -0.09980000
H        0.47900000      -2.93900000       1.56640000
