17
Properties=species:S:1:pos:R:3 gdb_112449=T pbc="F F F"
C        0.42340000       1.22280000       0.19320000
O        0.47300000      -0.19130000       0.06730000
C        0.44150000      -0.64320000      -1.23620000
O        1.66210000      -0.32290000      -1.93030000
C        2.57700000      -1.33560000      -1.78310000
O        3.69300000      -1.24600000      -2.19610000
C        1.90430000      -2.50320000      -1.07280000
C        0.41410000      -2.18300000      -1.24240000
O       -0.45750000      -2.66110000      -0.25060000
H        1.30200000       1.69620000      -0.25910000
H       -0.48330000       1.62820000      -0.27820000
H        0.39970000       1.44200000       1.26180000
H       -0.36670000      -0.17220000      -1.80930000
H        2.23600000      -3.45150000      -1.49720000
H        2.16840000      -2.47600000      -0.01080000
H        0.08820000      -2.49210000      -2.24690000
H       -0.54200000      -3.61320000      -0.35990000
