21
Properties=species:S:1:pos:R:3 gdb_73307=T pbc="F F F"
C       -0.03750000       1.44540000       0.04120000
C       -0.00740000      -0.06320000      -0.02360000
C        1.02570000      -0.73620000      -0.94090000
C        0.36070000      -2.06990000      -1.36340000
C       -0.73700000      -2.27310000      -0.30900000
O       -1.71520000      -3.22890000      -0.61710000
C       -0.11800000      -2.30820000       1.13230000
C       -0.41420000      -0.81220000       1.24060000
C       -1.28670000      -0.85360000      -0.00520000
H        0.90880000       1.84400000       0.42580000
H       -0.20130000       1.88140000      -0.95110000
H       -0.83780000       1.80140000       0.69810000
H        1.23750000      -0.10360000      -1.80880000
H        1.97970000      -0.89450000      -0.42540000
H       -0.10990000      -1.98050000      -2.34870000
H        1.06550000      -2.90910000      -1.39940000
H       -1.27620000      -4.07750000      -0.74020000
H       -0.76670000      -2.88720000       1.79490000
H        0.91880000      -2.65040000       1.24000000
H       -0.58780000      -0.26900000       2.16320000
H       -2.28700000      -0.48660000      -0.19340000
