13
Properties=species:S:1:pos:R:3 gdb_2427=T pbc="F F F"
O       -0.04710000       1.35360000       0.07260000
C        0.06890000      -0.01390000       0.06790000
C        0.79150000      -0.95020000       1.06640000
C        0.10000000      -1.92210000       0.08680000
C       -1.13530000      -0.98640000      -0.10360000
O       -1.08080000      -1.01410000      -1.55890000
C        0.31550000      -0.99480000      -1.14660000
H        0.83380000       1.74190000       0.03410000
H        1.88560000      -0.93910000       1.05080000
H        0.41980000      -0.94440000       2.09450000
H        0.08980000      -3.00830000       0.07620000
H       -2.10520000      -0.99380000       0.39220000
H        1.09360000      -1.01040000      -1.90960000
