13
Properties=species:S:1:pos:R:3 gdb_25513=T pbc="F F F"
O       -0.44890000       0.09270000       0.00290000
C       -0.11990000       1.24570000       0.00760000
N        1.17710000       1.74910000      -0.00110000
C        2.39380000       1.09320000      -0.01590000
N        2.44300000      -0.23840000      -0.02850000
C        3.67940000      -0.72990000      -0.04270000
N        4.81540000      -0.03050000      -0.04540000
C        4.62630000       1.29150000      -0.03230000
N        3.45610000       1.91680000      -0.01730000
H       -0.83960000       2.08840000       0.02000000
H        1.27520000       2.75520000       0.00620000
H        3.76700000      -1.81410000      -0.05280000
H        5.51520000       1.91860000      -0.03390000
