14
Properties=species:S:1:pos:R:3 gdb_27678=T pbc="F F F"
C        0.02840000       1.49040000       0.10410000
C        0.04620000       0.00440000       0.00260000
C       -0.06500000      -0.77100000      -1.13470000
N        0.01120000      -2.09800000      -0.68920000
C        0.15860000      -2.03090000       0.64910000
O        0.26070000      -3.15130000       1.36770000
N        0.18530000      -0.80140000       1.10900000
C       -0.22260000      -0.42680000      -2.48800000
N       -0.35280000      -0.14360000      -3.60610000
H        0.95780000       1.85740000       0.55190000
H       -0.08990000       1.94930000      -0.87990000
H       -0.79320000       1.82310000       0.74700000
H       -0.03670000      -2.93070000      -1.25210000
H        0.35780000      -2.88120000       2.29040000
