16
Properties=species:S:1:pos:R:3 gdb_53759=T pbc="F F F"
N       -0.02460000       1.35330000       0.00850000
C        0.06810000      -0.00840000       0.00130000
O        1.12630000      -0.60710000      -0.01110000
C       -1.22120000      -0.68540000       0.00990000
C       -2.26030000      -1.29710000       0.01660000
C       -3.49010000      -2.07530000       0.02420000
C       -3.22370000      -3.60470000       0.01330000
C       -4.46100000      -4.37300000       0.02100000
C       -5.50000000      -4.97690000       0.02780000
H        0.82660000       1.89060000       0.00340000
H       -0.91250000       1.82320000       0.01910000
H       -4.08640000      -1.82040000       0.90800000
H       -4.10340000      -1.81080000      -0.84510000
H       -2.62730000      -3.85680000      -0.87060000
H       -2.61040000      -3.86640000       0.88280000
H       -6.40790000      -5.52750000       0.03400000
