23
Properties=species:S:1:pos:R:3 gdb_92093=T pbc="F F F"
C       -0.57180000       1.44270000       0.04060000
C        0.03540000       0.02670000       0.01870000
C        0.72020000      -0.24920000      -1.33360000
C        1.16040000      -1.68930000      -1.48770000
C        2.45020000      -2.05770000      -2.18300000
C        2.33280000      -2.18300000      -0.68210000
C        3.04580000      -1.21210000       0.24830000
C        2.15910000      -0.65150000       1.34330000
C        0.92130000      -0.16290000       1.23280000
H        0.20910000       2.20300000      -0.07230000
H       -1.29090000       1.57270000      -0.77480000
H       -1.09260000       1.63910000       0.98330000
H       -0.80440000      -0.68140000       0.11650000
H        0.02620000       0.01350000      -2.14240000
H        1.57670000       0.42650000      -1.44360000
H        0.33830000      -2.39140000      -1.60710000
H        2.47770000      -2.96120000      -2.78270000
H        3.06200000      -1.24960000      -2.57350000
H        2.24660000      -3.19140000      -0.28720000
H        3.90400000      -1.71640000       0.70640000
H        3.47990000      -0.38970000      -0.33470000
H        2.59710000      -0.65090000       2.33990000
H        0.45200000       0.17950000       2.15580000
