17
Properties=species:S:1:pos:R:3 gdb_103254=T pbc="F F F"
C       -0.03080000       1.58750000       0.14510000
C       -0.00040000       0.07540000       0.07560000
C       -1.25720000      -0.56970000      -0.50300000
O       -1.49470000      -0.20080000      -1.84990000
C        1.24980000      -0.69020000      -0.18220000
O        2.40450000       0.00550000       0.36060000
C        1.90610000      -0.16340000       1.65190000
O        2.44580000       0.11360000       2.67170000
C        0.62450000      -0.80240000       1.18920000
H        0.92160000       1.99820000       0.48320000
H       -0.22870000       2.00400000      -0.84850000
H       -0.81720000       1.93020000       0.82600000
H       -1.14970000      -1.66010000      -0.50440000
H       -2.11650000      -0.32860000       0.14060000
H       -1.84770000       0.69360000      -1.86300000
H        1.43620000      -1.42810000      -0.94990000
H        0.08970000      -1.60170000       1.68250000
