13
Properties=species:S:1:pos:R:3 gdb_132466=T pbc="F F F"
O        0.03590000       1.35500000       0.00730000
C       -0.04050000       0.01170000       0.00090000
C       -1.19950000      -0.68640000       0.00450000
C       -1.16300000      -2.12560000      -0.00300000
C        0.03600000      -2.72000000      -0.01340000
F        0.24720000      -4.01750000      -0.02130000
O        1.20830000      -2.06150000      -0.01730000
C        1.24170000      -0.68160000      -0.01050000
N        2.32800000      -0.01940000      -0.01380000
H        0.98930000       1.55880000       0.00250000
H       -2.14800000      -0.16430000       0.01300000
H       -2.06100000      -2.72570000      -0.00060000
H        3.15800000      -0.60710000      -0.02190000
