20
Properties=species:S:1:pos:R:3 gdb_61221=T pbc="F F F"
C       -0.00990000       1.52590000       0.33010000
C       -0.00900000       0.03170000       0.06140000
C        1.26520000      -0.60420000      -0.44650000
C        0.81190000      -0.84600000       0.97270000
C       -1.31770000      -0.56910000      -0.44040000
O       -2.37240000      -0.46530000       0.49850000
C       -1.73220000       0.01950000      -1.81320000
C       -2.91200000      -0.63460000      -2.37180000
N       -3.83780000      -1.15760000      -2.82350000
H        0.95360000       1.84260000       0.73940000
H       -0.18420000       2.11470000      -0.57760000
H       -0.77360000       1.80330000       1.06700000
H        1.18820000      -1.42610000      -1.15140000
H        2.12370000       0.03810000      -0.61140000
H        1.36330000      -0.36750000       1.77480000
H        0.41980000      -1.82450000       1.22730000
H       -1.17200000      -1.64670000      -0.57120000
H       -2.55870000       0.46700000       0.65340000
H       -1.94220000       1.09090000      -1.71370000
H       -0.90280000      -0.07610000      -2.52270000
