16
Properties=species:S:1:pos:R:3 gdb_14577=T pbc="F F F"
C        0.06780000      -0.19630000       1.32300000
C        0.08030000       0.42520000       0.29350000
C        0.15550000       1.20000000      -0.95190000
N        1.33380000       2.06250000      -1.08270000
C        1.42350000       3.09950000      -0.06090000
C        2.61230000       4.02280000      -0.38160000
C        2.74230000       5.11480000       0.57900000
N        2.83010000       5.97430000       1.34610000
H        0.04160000      -0.74920000       2.22960000
H        0.14110000       0.51610000      -1.80820000
H       -0.73790000       1.82970000      -1.04660000
H        2.16540000       1.47920000      -1.04280000
H        0.49810000       3.68570000      -0.08790000
H        1.52390000       2.70740000       0.96300000
H        3.54680000       3.44820000      -0.38200000
H        2.49280000       4.43530000      -1.38860000
