23
Properties=species:S:1:pos:R:3 gdb_68075=T pbc="F F F"
C       -0.08960000       1.55990000       0.02710000
C        0.01860000       0.04650000      -0.00890000
C        1.11560000      -0.62490000      -0.89580000
C        1.13080000      -1.76260000       0.16830000
C        2.38150000      -2.57630000       0.40990000
C        0.67190000      -0.69300000       1.19850000
O        0.05950000      -2.68840000      -0.03980000
C       -1.08520000      -2.12610000      -0.67180000
C       -1.32780000      -0.65220000      -0.28830000
H        0.87590000       2.01840000       0.26760000
H       -0.42000000       1.95900000      -0.93920000
H       -0.81230000       1.88720000       0.78410000
H        0.88840000      -0.87750000      -1.93510000
H        2.05110000      -0.05910000      -0.86300000
H        3.23000000      -1.92340000       0.63400000
H        2.23340000      -3.25750000       1.25390000
H        2.62500000      -3.17840000      -0.47120000
H        1.51650000      -0.13080000       1.60920000
H        0.02210000      -1.03880000       2.00750000
H       -0.97190000      -2.20070000      -1.76330000
H       -1.93350000      -2.75920000      -0.39490000
H       -1.96360000      -0.57120000       0.60170000
H       -1.86040000      -0.15710000      -1.10970000
