18
Properties=species:S:1:pos:R:3 gdb_24160=T pbc="F F F"
C       -0.35060000       1.06950000      -0.32300000
C        1.04660000       1.13810000       0.24220000
C        0.36430000      -0.19310000       0.09960000
N       -0.07170000      -0.84100000       1.29690000
C       -1.07670000      -1.79790000       1.19940000
C       -2.03470000      -1.96220000       0.22500000
N       -2.79710000      -3.03680000       0.66440000
C       -2.27000000      -3.45620000       1.83940000
N       -1.22820000      -2.73380000       2.19450000
H       -1.16130000       1.40520000       0.31260000
H       -0.48950000       1.24980000      -1.38320000
H        1.86860000       1.36390000      -0.42740000
H        1.15770000       1.52700000       1.24780000
H        0.70970000      -0.84240000      -0.70850000
H        0.67380000      -1.15420000       1.90460000
H       -2.24810000      -1.43980000      -0.68990000
H       -3.59150000      -3.43000000       0.19030000
H       -2.67590000      -4.28890000       2.39390000
