19
Properties=species:S:1:pos:R:3 gdb_91171=T pbc="F F F"
C       -0.09530000       1.53360000      -0.01860000
C        0.05460000       0.01650000       0.01310000
O        0.73450000      -0.41460000      -1.16070000
C        1.87790000      -1.28150000      -0.86170000
C        2.83030000      -0.45990000      -0.01400000
C        2.26200000      -0.04560000       1.11730000
C        0.83470000      -0.53260000       1.27820000
C        0.78670000      -2.04030000       1.09370000
C        1.35270000      -2.44550000      -0.04110000
H        0.88180000       2.02250000       0.00790000
H       -0.60300000       1.83600000      -0.93900000
H       -0.69230000       1.88100000       0.83170000
H       -0.94250000      -0.44690000       0.02380000
H        2.28290000      -1.56930000      -1.83080000
H        3.82530000      -0.20280000      -0.35580000
H        2.71870000       0.62010000       1.83960000
H        0.35740000      -0.19360000       2.19800000
H        0.27140000      -2.67780000       1.80220000
H        1.39460000      -3.46570000      -0.40160000
