23
Properties=species:S:1:pos:R:3 gdb_113309=T pbc="F F F"
C        0.32140000       1.51820000       0.17100000
C       -0.18620000       0.10430000      -0.14070000
C        0.56480000      -0.52370000      -1.29760000
C        1.84280000      -1.28900000      -1.09640000
C        0.59500000      -2.02920000      -1.57300000
C       -0.07960000      -3.02400000      -0.62930000
C        0.57780000      -4.40820000      -0.64750000
C        0.55510000      -2.40770000      -2.96300000
C        0.50260000      -2.72890000      -4.12210000
H        1.38330000       1.50480000       0.43810000
H        0.20640000       2.17930000      -0.69480000
H       -0.23160000       1.96110000       1.00500000
H       -0.09200000      -0.51570000       0.75700000
H       -1.25740000       0.14450000      -0.37670000
H        0.53010000       0.07290000      -2.20580000
H        2.65870000      -1.15560000      -1.79680000
H        2.15220000      -1.48740000      -0.07410000
H       -0.05730000      -2.62560000       0.38950000
H       -1.13680000      -3.11480000      -0.90630000
H        0.06040000      -5.09340000       0.03090000
H        0.55300000      -4.83980000      -1.65220000
H        1.62590000      -4.34990000      -0.33510000
H        0.46160000      -3.00900000      -5.14520000
