19
Properties=species:S:1:pos:R:3 gdb_41511=T pbc="F F F"
C        0.05060000       1.54330000       0.20580000
C        1.53930000       1.98730000      -0.00850000
C        2.18970000       0.75740000       0.57110000
C        2.65270000       0.65140000       1.81930000
C        2.25830000      -0.60190000       2.56280000
O        0.84360000      -0.81420000       2.33330000
C        0.57030000      -1.02360000       0.97820000
C        0.05280000       0.01780000      -0.02620000
C        1.50060000      -0.43910000      -0.03640000
H       -0.26780000       1.79650000       1.22200000
H       -0.63050000       2.03670000      -0.49350000
H        1.73660000       2.11480000      -1.07940000
H        1.79440000       2.91360000       0.51270000
H        2.99040000       1.51830000       2.38040000
H        2.81600000      -1.49690000       2.25610000
H        2.36910000      -0.48180000       3.64270000
H        0.19070000      -2.02830000       0.79240000
H       -0.65770000      -0.37690000      -0.74560000
H        1.97350000      -1.02550000      -0.81700000
