19
Properties=species:S:1:pos:R:3 gdb_35735=T pbc="F F F"
C       -0.09470000      -1.20350000      -0.15620000
C       -0.03880000      -0.00650000      -0.05770000
C        0.03490000       1.43960000       0.07820000
C       -0.56280000       1.99610000       1.39720000
C       -0.03080000       3.43620000       1.43590000
C        1.37730000       3.33150000       0.84560000
C        2.22080000       4.50070000       0.57810000
O        2.48020000       3.65350000       1.70120000
C        1.47900000       2.01020000       0.07660000
H       -0.14560000      -2.26020000      -0.24690000
H       -0.51670000       1.89600000      -0.75550000
H       -1.65260000       1.92710000       1.42180000
H       -0.17120000       1.41690000       2.24030000
H       -0.65240000       4.08290000       0.80430000
H       -0.00230000       3.87300000       2.43660000
H        2.96350000       4.46310000      -0.21880000
H        1.85610000       5.49950000       0.81960000
H        2.14640000       1.33890000       0.62520000
H        1.88010000       2.12480000      -0.93310000
