18
Properties=species:S:1:pos:R:3 gdb_26516=T pbc="F F F"
C        0.09430000       1.60630000       0.10010000
C        0.09940000       0.11000000      -0.00400000
C       -0.91660000      -0.80410000       0.67660000
C        0.54990000      -0.94970000       1.00240000
N        1.25840000      -1.63710000      -0.08880000
C        1.48900000      -2.86490000      -0.66200000
C        1.30840000      -2.69380000      -2.02240000
C        0.82060000      -1.36710000      -2.27150000
C        0.80860000      -0.74750000      -1.04360000
H        1.10350000       2.01400000      -0.01540000
H       -0.53750000       2.05130000      -0.67710000
H       -0.29830000       1.93140000       1.06880000
H       -1.52430000      -0.34200000       1.45230000
H       -1.41690000      -1.58350000       0.11040000
H        0.98880000      -0.84250000       1.98610000
H        1.86530000      -3.70790000      -0.10420000
H        1.55000000      -3.42860000      -2.77760000
H        0.54450000      -0.95560000      -3.22990000
