20
Properties=species:S:1:pos:R:3 gdb_57475=T pbc="F F F"
C       -0.11450000       1.53840000       0.12170000
C       -0.00300000       0.01720000       0.03130000
C        0.72240000      -0.56840000       1.25290000
O       -1.32940000      -0.49680000      -0.03550000
C        0.72980000      -0.39950000      -1.26070000
N        0.52250000      -1.84210000      -1.60010000
C        0.04880000      -1.54050000      -2.97970000
C        0.06180000      -0.04980000      -2.60800000
O       -0.28770000       0.95680000      -3.14460000
H        0.87570000       1.99880000       0.19490000
H       -0.62150000       1.94130000      -0.75730000
H       -0.68740000       1.81020000       1.01280000
H        0.15010000      -0.34820000       2.15840000
H        0.81030000      -1.65640000       1.16300000
H        1.72830000      -0.14970000       1.36570000
H       -1.22570000      -1.42770000      -0.28170000
H        1.78010000      -0.07680000      -1.23610000
H        1.36290000      -2.40560000      -1.56650000
H        0.75630000      -1.77370000      -3.78630000
H       -0.92660000      -1.97070000      -3.22970000
