25
Properties=species:S:1:pos:R:3 gdb_64120=T pbc="F F F"
C        0.26120000       1.46020000       0.12460000
C       -0.07990000      -0.03470000       0.00220000
C       -1.59390000      -0.22500000      -0.12940000
C        0.69670000      -0.65070000      -1.17910000
O        2.00200000      -0.89350000      -0.69130000
C        1.89470000      -1.38380000       0.66130000
C        1.92380000      -2.91850000       0.63970000
C        3.09740000      -0.83310000       1.42640000
C        0.52910000      -0.84060000       1.18240000
H        1.34390000       1.61500000       0.13860000
H       -0.14740000       2.02530000      -0.72090000
H       -0.15690000       1.88580000       1.04330000
H       -1.98290000       0.29670000      -1.01140000
H       -1.85650000      -1.28440000      -0.22270000
H       -2.11940000       0.17430000       0.74490000
H        0.21270000      -1.58370000      -1.51580000
H        0.77940000       0.01680000      -2.04280000
H        2.86280000      -3.27560000       0.20670000
H        1.83130000      -3.32540000       1.65240000
H        1.09830000      -3.31740000       0.04180000
H        3.07430000       0.25980000       1.45180000
H        3.10450000      -1.20310000       2.45670000
H        4.02900000      -1.14360000       0.94350000
H        0.65680000      -0.21780000       2.07210000
H       -0.12940000      -1.66910000       1.46100000
