21
Properties=species:S:1:pos:R:3 gdb_60942=T pbc="F F F"
C        0.01330000       1.44150000      -0.15840000
C        0.08150000      -0.07640000       0.07100000
C        0.72870000      -0.39230000       1.40560000
O        1.63890000      -1.16420000       1.56820000
C       -1.31550000      -0.69390000       0.06170000
C       -2.01780000      -1.22160000      -1.16530000
C       -1.05120000      -1.94620000      -2.11160000
C       -0.63740000      -2.89840000      -0.94190000
C       -1.62160000      -2.16490000      -0.01920000
H        1.01210000       1.88560000      -0.20960000
H       -0.50760000       1.65990000      -1.09510000
H       -0.53570000       1.93800000       0.65010000
H        0.70760000      -0.54090000      -0.69470000
H        0.27210000       0.14370000       2.27330000
H       -2.00460000      -0.17330000       0.72630000
H       -3.00170000      -0.85990000      -1.44150000
H       -1.57570000      -2.48200000      -2.90540000
H       -0.26490000      -1.33970000      -2.57300000
H       -0.93380000      -3.93140000      -1.13400000
H        0.41030000      -2.89040000      -0.62830000
H       -2.25630000      -2.64420000       0.71710000
