17
Properties=species:S:1:pos:R:3 gdb_85563=T pbc="F F F"
N        0.06050000       1.41940000       0.18150000
C       -0.00880000       0.03940000       0.05940000
N       -1.14120000      -0.53920000      -0.00320000
C       -1.20310000      -1.95290000      -0.32400000
C        0.07500000      -2.78900000      -0.23150000
O        0.09390000      -3.94810000      -0.56690000
C        1.28540000      -2.07770000       0.34910000
C        1.34490000      -0.63580000      -0.13740000
O        1.66980000      -0.67530000      -1.52400000
H        0.82550000       1.78600000       0.72900000
H       -0.83070000       1.85050000       0.38920000
H       -1.94480000      -2.43030000       0.33100000
H       -1.60020000      -2.08320000      -1.33980000
H        1.18660000      -2.08170000       1.44290000
H        2.19310000      -2.62410000       0.08490000
H        2.12050000      -0.08490000       0.41960000
H        1.53970000       0.20940000      -1.88370000
