14
Properties=species:S:1:pos:R:3 gdb_124412=T pbc="F F F"
C       -0.00800000       1.55820000       0.00680000
C        0.05570000       0.02330000      -0.01500000
C        0.69550000      -0.49750000      -1.21890000
C        1.20490000      -0.90010000      -2.22780000
N        0.74020000      -0.47530000       1.19430000
N        1.98120000      -0.17330000       1.53570000
N        2.18340000      -0.79580000       2.65700000
N        1.06590000      -1.47070000       2.99190000
N        0.16370000      -1.27260000       2.08070000
H        0.99800000       1.98020000      -0.02170000
H       -0.56160000       1.90420000      -0.86850000
H       -0.51830000       1.90000000       0.91060000
H       -0.95240000      -0.39230000       0.07470000
H        1.66030000      -1.26500000      -3.11600000
