18
Properties=species:S:1:pos:R:3 gdb_46049=T pbc="F F F"
O       -0.36770000       0.34690000      -0.89060000
C       -0.23430000       1.39520000      -0.33220000
C       -1.19010000       2.08800000       0.63470000
C       -0.67980000       3.53640000       0.69410000
C        0.81340000       3.33710000       0.34520000
O        0.87540000       2.17120000      -0.48980000
C       -1.37880000       4.43320000      -0.30640000
C       -2.56580000       5.22780000       0.08970000
N       -1.28070000       5.89630000      -0.19480000
H       -2.22040000       1.98340000       0.29150000
H       -1.11050000       1.58570000       1.60500000
H       -0.78490000       3.97030000       1.69400000
H        1.23920000       4.17300000      -0.21420000
H        1.42210000       3.16130000       1.24000000
H       -1.32200000       4.08320000      -1.33680000
H       -3.35600000       5.42950000      -0.62740000
H       -2.89970000       5.16170000       1.12260000
H       -0.82830000       6.14780000       0.68220000
