19
Properties=species:S:1:pos:R:3 gdb_63404=T pbc="F F F"
C       -0.06900000       1.55080000      -0.01710000
C       -0.04130000       0.02280000      -0.01130000
C       -1.42640000      -0.58280000       0.21260000
C        0.79280000      -0.63170000      -1.16110000
N        1.73520000      -1.12150000      -0.14230000
C        2.88750000      -1.87220000      -0.29400000
N        3.61250000      -2.22880000       0.68460000
C        1.03480000      -0.55970000       0.93890000
O        1.22360000      -0.55280000       2.11890000
H        0.92670000       1.97060000      -0.19150000
H       -0.74010000       1.92580000      -0.79740000
H       -0.42510000       1.92490000       0.94740000
H       -2.12640000      -0.25300000      -0.56270000
H       -1.39390000      -1.67680000       0.20110000
H       -1.82170000      -0.27060000       1.18380000
H        0.28290000      -1.43170000      -1.70680000
H        1.24020000       0.07310000      -1.86890000
H        3.07280000      -2.10410000      -1.35150000
H        4.40700000      -2.77110000       0.34930000
