18
Properties=species:S:1:pos:R:3 gdb_110459=T pbc="F F F"
O        0.07900000       1.34950000       0.20820000
C        0.12590000      -0.03450000      -0.09440000
C       -1.27710000      -0.61890000      -0.06310000
C       -1.60660000      -2.12020000      -0.13740000
C       -2.72490000      -1.78420000       0.92670000
C       -1.65590000      -1.87480000       1.94670000
C       -0.79860000      -2.74740000       1.03610000
O       -1.13820000      -4.09710000       1.28660000
N       -1.96220000      -0.55760000       1.28260000
H       -0.45660000       1.43600000       1.00630000
H        0.55140000      -0.12590000      -1.10070000
H        0.79550000      -0.56610000       0.59760000
H       -1.90590000      -0.04040000      -0.74860000
H       -1.71150000      -2.66050000      -1.07730000
H       -3.80150000      -1.87290000       0.96480000
H       -1.73020000      -1.90590000       3.02520000
H        0.29110000      -2.61510000       1.03860000
H       -0.70130000      -4.63970000       0.62230000
