19
Properties=species:S:1:pos:R:3 gdb_39286=T pbc="F F F"
C        0.07110000       1.44970000      -0.51770000
C        1.50900000       1.57950000       0.06230000
C        1.63070000       2.26720000       1.44030000
O        1.99770000       1.26310000       2.38510000
C        1.59210000      -0.01420000       1.94350000
O        0.32620000      -0.41570000       2.42010000
C       -0.69890000      -0.07080000       1.48970000
C       -0.04090000       0.02390000       0.09510000
C        1.47960000       0.06590000       0.41350000
H       -0.66320000       2.18850000      -0.17980000
H        0.06610000       1.43160000      -1.61000000
H        2.27590000       1.91870000      -0.63500000
H        2.40910000       3.03580000       1.46350000
H        0.68310000       2.74240000       1.73320000
H        2.31360000      -0.72400000       2.35460000
H       -1.46470000      -0.85040000       1.54550000
H       -1.17020000       0.88160000       1.77290000
H       -0.39180000      -0.75870000      -0.57850000
H        2.14160000      -0.60520000      -0.13030000
