19
Properties=species:S:1:pos:R:3 gdb_75184=T pbc="F F F"
C        0.11060000       1.53970000      -0.05610000
C        0.00850000       0.04080000      -0.07700000
C        0.23220000      -0.70480000      -1.15980000
C        0.16940000      -2.20830000      -1.14050000
C        0.20100000      -2.70390000       0.30690000
O       -0.70100000      -1.98140000       1.12260000
C       -0.36510000      -0.61040000       1.23390000
C       -0.15790000      -4.17310000       0.45630000
O        0.13230000      -5.02060000      -0.34670000
H        0.84140000       1.87940000       0.68960000
H        0.41610000       1.93120000      -1.02960000
H       -0.84750000       2.00220000       0.21360000
H        0.47700000      -0.22610000      -2.10520000
H       -0.74010000      -2.57100000      -1.63790000
H        1.00870000      -2.64650000      -1.69080000
H        1.23120000      -2.59280000       0.69910000
H        0.45620000      -0.47550000       1.96290000
H       -1.24770000      -0.11990000       1.66230000
H       -0.71090000      -4.40150000       1.39390000
