15
Properties=species:S:1:pos:R:3 gdb_2324=T pbc="F F F"
C        0.15230000       1.52410000      -0.24900000
C       -0.08940000       0.09000000       0.14320000
O        1.02530000      -0.80910000       0.10170000
C        0.41030000      -0.55420000       1.37130000
C        1.26280000       0.12530000       2.42270000
C        2.35720000      -0.80070000       2.92360000
O        2.57020000      -1.03890000       4.08400000
H        1.07030000       1.92230000       0.18760000
H        0.23910000       1.60290000      -1.33750000
H       -0.68810000       2.15170000       0.06620000
H       -1.00100000      -0.33930000      -0.27830000
H       -0.16720000      -1.39940000       1.75180000
H        1.75340000       1.00700000       1.99410000
H        0.65510000       0.44260000       3.27550000
H        2.97030000      -1.25620000       2.11530000
