18
Properties=species:S:1:pos:R:3 gdb_70070=T pbc="F F F"
C        0.00130000       1.49800000      -0.00870000
C       -0.01620000      -0.01340000       0.04030000
C       -0.87240000      -0.71630000       1.06280000
C        0.65140000      -0.74210000       1.19220000
C        1.39950000      -1.97170000       0.86720000
C        1.41970000      -2.48850000      -0.36600000
C        0.75710000      -1.83360000      -1.51770000
O        0.75640000      -2.31060000      -2.64120000
N        0.16760000      -0.62020000      -1.24790000
H        0.94710000       1.86440000      -0.42010000
H       -0.81380000       1.87720000      -0.63700000
H       -0.13020000       1.92050000       0.99090000
H       -1.41980000      -0.11330000       1.77900000
H       -1.35370000      -1.64180000       0.76810000
H        1.06860000      -0.13040000       1.98630000
H        1.94760000      -2.45290000       1.67340000
H        1.94740000      -3.40320000      -0.60740000
H       -0.29740000      -0.20020000      -2.04020000
