18
Properties=species:S:1:pos:R:3 gdb_79007=T pbc="F F F"
C        0.03430000       1.53560000      -0.14760000
N       -0.01780000       0.07760000      -0.08160000
C       -1.17270000      -0.51290000       0.73540000
C       -0.34080000      -1.77700000       1.04390000
C       -0.27050000      -1.67840000       2.59770000
C        1.25360000      -1.70060000       2.88810000
C        1.83720000      -0.97460000       1.91970000
C        0.61860000      -0.55610000       1.11650000
C       -0.53290000      -0.21400000       2.12730000
H        1.02200000       1.84480000      -0.50480000
H       -0.70560000       1.88410000      -0.87550000
H       -0.15880000       2.04490000       0.81110000
H       -2.20350000      -0.41630000       0.39510000
H       -0.18590000      -2.64030000       0.39600000
H       -0.93410000      -2.22500000       3.26770000
H        1.72910000      -2.20740000       3.71650000
H        2.87840000      -0.74230000       1.75630000
H       -0.61410000       0.67930000       2.74760000
