21
Properties=species:S:1:pos:R:3 gdb_106345=T pbc="F F F"
C        0.00780000       1.53130000       0.01110000
C       -0.06600000       0.00020000       0.00510000
C       -1.47560000      -0.53610000       0.01240000
C       -2.59450000      -0.28870000      -1.05340000
C       -3.22970000      -1.23100000       0.02130000
C       -1.90810000      -2.03770000       0.00920000
C       -2.58000000      -0.29760000       1.09520000
C       -4.62390000      -1.74960000       0.02910000
O       -4.92020000      -2.91900000       0.02900000
H        1.04630000       1.87510000       0.00550000
H       -0.48870000       1.95550000      -0.86800000
H       -0.47670000       1.94810000       0.90030000
H        0.45530000      -0.39280000      -0.87770000
H        0.46730000      -0.40020000       0.87730000
H       -3.00150000       0.72390000      -1.12020000
H       -2.43950000      -0.72840000      -2.04260000
H       -1.69500000      -2.60830000      -0.89830000
H       -1.68290000      -2.61570000       0.90900000
H       -2.41190000      -0.74570000       2.07860000
H       -2.98600000       0.71430000       1.17590000
H       -5.40960000      -0.95730000       0.03410000
