19
Properties=species:S:1:pos:R:3 gdb_85610=T pbc="F F F"
C       -0.95170000       1.16060000       0.13110000
C        0.19250000       0.14840000      -0.01380000
N        0.89630000       0.44530000      -1.26970000
C        1.80820000      -0.41200000      -1.86600000
O        1.83480000      -0.59760000      -3.07030000
N        2.68720000      -1.04500000      -1.00160000
C        3.31210000      -0.37720000       0.13900000
C        2.38970000      -0.01080000       1.26690000
C        1.07900000       0.19350000       1.20670000
H       -0.55750000       2.17950000       0.19530000
H       -1.63410000       1.10380000      -0.72340000
H       -1.53100000       0.95440000       1.03500000
H       -0.25900000      -0.85730000      -0.06840000
H        0.28070000       0.80310000      -1.98790000
H        3.33430000      -1.59880000      -1.54540000
H        4.06080000      -1.07510000       0.52980000
H        3.87270000       0.52000000      -0.17600000
H        2.88600000       0.09670000       2.22860000
H        0.55120000       0.41510000       2.13150000
