14
Properties=species:S:1:pos:R:3 gdb_13000=T pbc="F F F"
O        0.22230000       1.34030000      -0.37350000
C        0.00720000       0.01020000      -0.07580000
C       -0.49320000      -0.96140000      -1.14380000
C       -1.32690000      -0.68900000       0.07210000
O       -1.27560000      -1.65060000       1.10410000
C        0.05910000      -1.76200000       1.58520000
C        0.83380000      -0.57790000       1.00930000
O        1.86490000      -0.09670000       1.41680000
H        1.05890000       1.56880000       0.05950000
H       -0.79900000      -0.46070000      -2.05650000
H       -0.02550000      -1.93150000      -1.27660000
H       -2.28120000      -0.18090000       0.00580000
H        0.06030000      -1.71870000       2.67870000
H        0.51950000      -2.71320000       1.28120000
