9
Properties=species:S:1:pos:R:3 gdb_3814=T pbc="F F F"
N        0.07890000      -1.13760000      -0.00440000
C        0.01110000       0.01750000       0.00260000
C       -0.09710000       1.42880000       0.01180000
C       -1.17740000       2.26010000       0.03110000
C       -0.58730000       3.54910000       0.02980000
N        0.72310000       3.49120000       0.01220000
O        1.04570000       2.14940000       0.00050000
H       -2.21910000       1.98910000       0.04370000
H       -1.07230000       4.51450000       0.04150000
