22
Properties=species:S:1:pos:R:3 gdb_92333=T pbc="F F F"
C       -0.41420000       1.49390000       0.02280000
C        0.08740000       0.05500000      -0.06210000
C        1.23910000      -0.15360000      -1.06260000
O        1.88600000      -1.36690000      -0.67780000
C        1.78590000      -1.51300000       0.72430000
C        2.80410000      -0.72960000       1.59170000
N        1.80370000       0.34080000       1.78350000
C        1.64060000       0.89910000       3.10600000
C        0.71940000      -0.49980000       1.22090000
H        0.38460000       2.15220000       0.37710000
H       -0.74640000       1.85650000      -0.95580000
H       -1.26180000       1.58170000       0.71050000
H       -0.73710000      -0.61490000      -0.33930000
H        0.90570000      -0.26990000      -2.09770000
H        1.93810000       0.69390000      -1.01190000
H        1.67830000      -2.57490000       0.94990000
H        3.05200000      -1.26890000       2.52010000
H        3.73150000      -0.41450000       1.10090000
H        2.54540000       1.44570000       3.39340000
H        0.80670000       1.60850000       3.11370000
H        1.44630000       0.13450000       3.88370000
H       -0.00520000      -0.86130000       1.96180000
