16
Properties=species:S:1:pos:R:3 gdb_35238=T pbc="F F F"
N       -0.06370000      -1.02800000      -0.32770000
C       -0.02930000       0.12110000      -0.18870000
C        0.06670000       1.53940000      -0.02000000
C        0.53200000       2.12150000       1.32140000
C        1.44340000       2.19570000       0.15890000
C        2.75770000       1.42500000      -0.01620000
O        3.55220000       2.30140000      -0.81040000
C        2.66360000       3.21620000      -1.39720000
O        1.64030000       3.44010000      -0.44220000
H       -0.65860000       2.12760000      -0.57090000
H        0.04540000       3.03710000       1.63670000
H        0.76530000       1.42000000       2.11440000
H        3.27770000       1.25430000       0.93070000
H        2.59890000       0.46140000      -0.51640000
H        3.18140000       4.15840000      -1.58920000
H        2.23020000       2.81150000      -2.32870000
