11
Properties=species:S:1:pos:R:3 gdb_557=T pbc="F F F"
N       -0.17950000      -1.16970000      -0.21960000
C       -0.09810000      -0.02190000      -0.10850000
C        0.01600000       1.41630000       0.04390000
C       -0.09210000       2.01210000       1.47590000
O        1.14980000       2.71790000       1.31350000
C        1.44040000       2.03850000       0.08030000
H       -0.64260000       1.91500000      -0.66980000
H       -0.93640000       2.68600000       1.65060000
H       -0.04590000       1.26180000       2.27380000
H        2.24450000       1.30120000       0.18800000
H        1.68020000       2.73100000      -0.73230000
