20
Properties=species:S:1:pos:R:3 gdb_100510=T pbc="F F F"
C        0.04610000       1.55340000       0.00740000
C        0.00090000       0.02450000      -0.06260000
C       -1.42080000      -0.55690000      -0.02140000
C       -2.26940000      -0.19760000      -1.26430000
C       -1.38690000      -2.06540000       0.10420000
O       -0.43950000      -2.75810000      -0.19750000
C       -2.67480000      -2.73840000       0.65330000
N       -2.57120000      -4.08460000       0.67470000
O       -3.63960000      -2.09090000       1.01590000
H        1.08110000       1.90730000       0.03890000
H       -0.43160000       2.02030000      -0.85940000
H       -0.45910000       1.92560000       0.90590000
H        0.50450000      -0.32830000      -0.96970000
H        0.57290000      -0.39300000       0.77400000
H       -1.96310000      -0.18200000       0.85500000
H       -1.79400000      -0.56690000      -2.17940000
H       -3.27070000      -0.62630000      -1.18690000
H       -2.37470000       0.88660000      -1.34870000
H       -1.70850000      -4.50720000       0.37140000
H       -3.32800000      -4.64300000       1.03040000
