19
Properties=species:S:1:pos:R:3 gdb_91060=T pbc="F F F"
O        0.20450000       1.39440000       0.13990000
C        0.03990000      -0.00560000      -0.01080000
C       -1.46170000      -0.46380000      -0.08170000
C       -1.36110000      -1.74780000      -0.91810000
C       -2.12040000      -2.24430000      -2.17930000
C       -1.99920000      -1.30460000      -3.33930000
C       -0.79480000      -2.15980000      -2.98200000
C       -0.16510000      -1.48640000      -1.79650000
C        0.64580000      -0.55180000      -1.31270000
H       -0.15530000       1.81050000      -0.65200000
H        0.52760000      -0.42700000       0.87850000
H       -1.91320000      -0.57990000       0.90690000
H       -2.02030000       0.31140000      -0.62160000
H       -1.17950000      -2.61850000      -0.27440000
H       -2.84600000      -3.04850000      -2.18000000
H       -2.52690000      -1.61350000      -4.23690000
H       -1.95770000      -0.22860000      -3.19470000
H       -0.36000000      -2.85780000      -3.68550000
H        1.55740000      -0.14130000      -1.73070000
