15
Properties=species:S:1:pos:R:3 gdb_32130=T pbc="F F F"
C        0.00790000       1.46970000       0.11400000
N       -0.09340000       0.02620000       0.14910000
C       -1.23250000      -0.68460000       0.03350000
N       -2.39980000      -0.02610000      -0.13030000
C       -3.45470000      -0.82140000      -0.23280000
N       -3.46310000      -2.15230000      -0.19040000
C       -2.23840000      -2.67960000      -0.02400000
O       -2.16230000      -4.01200000       0.02880000
N       -1.09950000      -2.02500000       0.09340000
H        0.64240000       1.79980000      -0.71640000
H       -0.99260000       1.87840000      -0.02040000
H        0.42900000       1.85760000       1.04860000
H        0.73770000      -0.53120000       0.26840000
H       -4.41930000      -0.33470000      -0.36620000
H       -3.06960000      -4.33310000      -0.07130000
