25
Properties=species:S:1:pos:R:3 gdb_109769=T pbc="F F F"
C       -0.41220000       1.53790000      -0.68780000
C       -0.50560000       0.00770000      -0.61910000
C        0.53980000      -0.66860000      -1.48450000
C        1.90130000      -1.02730000      -0.91870000
O        2.13500000      -0.88870000       0.45730000
C        0.95420000      -2.12410000      -1.31790000
C        0.34280000      -3.06620000      -0.29190000
C       -0.95070000      -3.69360000      -0.83210000
C        1.35960000      -4.14540000       0.11120000
H        0.56340000       1.89330000      -0.33650000
H       -0.53880000       1.89800000      -1.71470000
H       -1.18150000       2.01220000      -0.07040000
H       -0.39260000      -0.31380000       0.42010000
H       -1.50810000      -0.30670000      -0.93530000
H        0.55130000      -0.30380000      -2.51030000
H        2.78090000      -0.85600000      -1.53930000
H        2.27760000       0.04490000       0.64460000
H        1.21430000      -2.62970000      -2.24690000
H        0.09950000      -2.49370000       0.60830000
H       -1.69020000      -2.92950000      -1.09120000
H       -0.75230000      -4.28340000      -1.73530000
H       -1.40130000      -4.36400000      -0.09240000
H        2.25390000      -3.69130000       0.54660000
H        0.93090000      -4.83400000       0.84740000
H        1.66750000      -4.73970000      -0.75800000
