18
Properties=species:S:1:pos:R:3 gdb_13113=T pbc="F F F"
C       -0.11940000       1.48470000       0.03130000
C       -0.14840000      -0.03610000       0.13800000
N        0.88970000      -0.50870000       1.06060000
C        0.91520000      -1.94990000       1.20740000
C        1.85880000      -2.48280000       2.30660000
O        0.71480000      -3.01170000       3.04750000
C       -0.16990000      -2.52030000       2.11250000
N       -1.42220000      -2.55560000       2.07330000
H        0.83880000       1.83750000      -0.36890000
H       -0.90790000       1.83930000      -0.63880000
H       -0.26380000       1.94300000       1.01370000
H       -1.11280000      -0.37230000       0.53070000
H       -0.04450000      -0.48570000      -0.86740000
H        1.79820000      -0.19890000       0.72460000
H        0.99040000      -2.50420000       0.25600000
H        2.54610000      -3.28350000       2.02460000
H        2.36910000      -1.70540000       2.87970000
H       -1.80890000      -3.02010000       2.89720000
