17
Properties=species:S:1:pos:R:3 gdb_12476=T pbc="F F F"
N       -0.06710000       1.31170000       0.31520000
C       -0.00990000       0.08710000      -0.00640000
C       -1.27670000      -0.73720000      -0.08170000
C       -1.45690000      -1.52010000      -1.39400000
C       -0.67150000      -2.83560000      -1.39720000
O        0.58420000      -2.74520000      -0.72310000
C        1.36330000      -1.64920000      -1.06010000
O        1.20220000      -0.52380000      -0.19740000
H        0.87620000       1.70620000       0.33850000
H       -1.28690000      -1.43600000       0.76380000
H       -2.09550000      -0.03140000       0.06090000
H       -2.51660000      -1.75450000      -1.54030000
H       -1.16910000      -0.88900000      -2.24230000
H       -1.21950000      -3.60730000      -0.84870000
H       -0.52140000      -3.19810000      -2.42470000
H        2.40960000      -1.93000000      -0.92310000
H        1.19550000      -1.33800000      -2.10200000
