18
Properties=species:S:1:pos:R:3 gdb_74151=T pbc="F F F"
C       -0.02000000       1.48670000       0.06170000
C        0.00970000      -0.00800000       0.00400000
C       -0.02580000      -0.75950000      -1.11200000
C        0.01280000      -2.20000000      -0.79270000
O        0.01970000      -3.12350000      -1.57440000
C        0.05120000      -2.31330000       0.73910000
C        0.07850000      -0.87120000       1.22530000
C        0.79080000      -0.42610000       2.45860000
N       -0.67200000      -0.53070000       2.45410000
H        0.88930000       1.88480000       0.52720000
H       -0.10420000       1.91670000      -0.93830000
H       -0.86680000       1.85310000       0.65500000
H       -0.07300000      -0.39100000      -2.12930000
H       -0.83680000      -2.83840000       1.10180000
H        0.92540000      -2.89450000       1.04640000
H        1.30170000      -1.17140000       3.06240000
H        1.25010000       0.55890000       2.47380000
H       -1.08800000       0.39450000       2.37460000
