16
Properties=species:S:1:pos:R:3 gdb_97782=T pbc="F F F"
C        0.00240000       1.57940000      -0.19920000
C       -0.01370000       0.09880000       0.22390000
C       -1.35080000      -0.48090000       0.22990000
C       -2.46030000      -0.95010000       0.21820000
C       -3.78270000      -1.49960000       0.22990000
O       -4.34260000      -1.95590000      -1.01300000
C       -4.05140000      -2.94140000      -0.03110000
C       -2.97090000      -3.86010000      -0.31660000
N       -2.12690000      -4.62260000      -0.51930000
H        1.02610000       1.96370000      -0.18560000
H       -0.39830000       1.69920000      -1.20900000
H       -0.60300000       2.18530000       0.48010000
H        0.62350000      -0.48840000      -0.44870000
H        0.42420000      -0.00670000       1.22460000
H       -4.50690000      -0.99640000       0.87000000
H       -4.91810000      -3.40250000       0.44000000
