18
Properties=species:S:1:pos:R:3 gdb_108699=T pbc="F F F"
O       -0.18190000       1.48950000      -0.19270000
C       -0.16980000       0.07840000      -0.19460000
C       -1.42600000      -0.53850000       0.33140000
C       -2.57460000       0.14200000       0.57430000
C       -3.19120000       0.70590000      -0.73470000
C       -3.91370000      -0.69570000      -0.76810000
C       -3.72820000      -0.88540000       0.68510000
N       -3.25390000      -1.94450000      -0.18140000
C       -1.78750000      -1.99420000       0.05600000
H       -0.69010000       1.76040000       0.58240000
H       -0.00360000      -0.23770000      -1.23620000
H        0.69170000      -0.31900000       0.37470000
H       -3.95980000       1.47810000      -0.61840000
H       -2.49260000       0.99180000      -1.52280000
H       -4.79140000      -0.91900000      -1.36560000
H       -4.43620000      -1.03910000       1.49110000
H       -1.23760000      -2.34620000      -0.82510000
H       -1.61490000      -2.71950000       0.86150000
