14
Properties=species:S:1:pos:R:3 gdb_62417=T pbc="F F F"
N       -0.08390000       1.52710000       0.15560000
C       -0.04960000       0.08840000       0.00920000
C        0.84720000      -0.49000000       1.01020000
N        1.56820000      -0.94950000       1.78730000
C       -1.38980000      -0.66620000      -0.04390000
C       -2.11110000      -0.42220000      -1.29950000
N       -1.00190000      -1.42610000      -1.31560000
C        0.20410000      -0.62690000      -1.38870000
O        1.05130000      -0.57850000      -2.21670000
H        0.85730000       1.90440000       0.20430000
H       -0.54420000       1.95830000      -0.63870000
H       -1.82130000      -1.19470000       0.79590000
H       -3.08580000      -0.88290000      -1.41860000
H       -1.98320000       0.50140000      -1.85770000
