17
Properties=species:S:1:pos:R:3 gdb_50724=T pbc="F F F"
N        0.09550000       1.37210000      -0.14240000
C        0.08760000       0.13270000       0.11220000
O        1.22460000      -0.55180000       0.40320000
C        1.16530000      -1.82050000       1.08300000
C       -0.04420000      -2.64610000       0.67450000
N       -1.20640000      -1.80210000       0.87570000
C       -1.18940000      -0.67880000      -0.03600000
C       -2.45360000       0.15970000       0.12150000
O       -3.45670000      -0.29750000       0.60630000
H        1.04000000       1.74910000      -0.04490000
H        2.10460000      -2.32280000       0.83980000
H        1.12790000      -1.62750000       2.16120000
H        0.07190000      -2.99580000      -0.36900000
H       -0.10550000      -3.52750000       1.32020000
H       -2.09380000      -2.28570000       0.81240000
H       -1.19960000      -0.99370000      -1.10660000
H       -2.38700000       1.18780000      -0.27460000
