15
Properties=species:S:1:pos:R:3 gdb_61100=T pbc="F F F"
C       -0.01690000       1.56390000      -0.04580000
C        0.00190000       0.01360000      -0.03950000
C        0.77580000      -0.53370000       1.21060000
C        2.14280000      -0.03040000       1.30900000
N        3.21840000       0.38200000       1.39320000
C       -1.36510000      -0.51600000       0.00930000
C       -2.48680000      -0.93550000       0.08790000
C        0.66430000      -0.47180000      -1.26760000
N        1.18910000      -0.84320000      -2.22680000
H        1.00290000       1.95320000      -0.07840000
H       -0.56650000       1.92790000      -0.91500000
H       -0.51300000       1.92290000       0.85920000
H        0.21870000      -0.23880000       2.10500000
H        0.79110000      -1.62640000       1.17830000
H       -3.48050000      -1.30910000       0.13890000
