15
Properties=species:S:1:pos:R:3 gdb_30612=T pbc="F F F"
O       -0.06060000       1.47270000       0.01100000
C       -0.00670000       0.07160000       0.00380000
C       -1.42630000      -0.48650000       0.01260000
O       -2.41300000       0.22320000       0.02350000
C       -1.55280000      -1.94390000       0.00730000
C       -0.68510000      -3.02090000      -0.00420000
N       -1.37230000      -4.20050000      -0.00400000
C       -2.64940000      -3.85390000       0.00740000
N       -2.80950000      -2.51330000       0.01440000
H        0.84190000       1.80420000       0.00480000
H        0.50490000      -0.33140000      -0.88710000
H        0.51940000      -0.34000000       0.88220000
H        0.39480000      -3.00340000      -0.01250000
H       -3.48360000      -4.53960000       0.01100000
H       -3.65760000      -1.96730000       0.02340000
