21
Properties=species:S:1:pos:R:3 gdb_105514=T pbc="F F F"
C       -0.18460000       1.54480000      -0.05060000
C        0.07410000       0.03600000      -0.03640000
O        0.92070000      -0.35790000      -1.11720000
C        0.74620000      -0.48950000       1.23730000
C        2.11850000       0.14630000       1.48790000
O        2.73310000      -0.30090000       2.68730000
C       -0.19460000      -0.55570000       2.46530000
O       -0.26890000      -1.99480000       2.39130000
C        0.68920000      -2.03600000       1.31900000
H        0.75120000       2.10980000      -0.05970000
H       -0.75250000       1.82160000      -0.94610000
H       -0.77400000       1.85620000       0.81770000
H       -0.89720000      -0.47940000      -0.12080000
H        0.51540000      -0.06560000      -1.93950000
H        2.76200000      -0.02040000       0.61430000
H        2.00780000       1.22830000       1.61230000
H        3.01540000      -1.21160000       2.56070000
H        0.26820000      -0.21930000       3.39930000
H       -1.18100000      -0.08830000       2.35140000
H        0.30540000      -2.54190000       0.42620000
H        1.62120000      -2.53510000       1.62290000
