15
Properties=species:S:1:pos:R:3 gdb_20605=T pbc="F F F"
C       -0.07540000       1.56160000       0.05430000
C       -0.01830000       0.06800000       0.00960000
C       -0.03020000      -0.77000000      -1.06970000
N       -0.11710000      -0.53510000      -2.42590000
O       -0.02220000      -2.05370000      -0.69460000
N        0.00360000      -2.11350000       0.72440000
C       -0.00230000      -0.85300000       1.10130000
N       -0.06840000      -0.51480000       2.44590000
H        0.90650000       2.02790000       0.21280000
H       -0.48170000       1.96890000      -0.87750000
H       -0.73000000       1.90170000       0.86440000
H        0.35780000       0.30030000      -2.73540000
H        0.12950000      -1.33990000      -2.98550000
H        0.10510000      -1.30860000       3.04930000
H        0.51610000       0.27020000       2.69830000
