18
Properties=species:S:1:pos:R:3 gdb_58346=T pbc="F F F"
C       -0.05110000       1.45560000       0.21670000
C       -0.21260000      -0.05650000       0.35040000
O       -0.00860000      -0.45860000       1.71230000
C       -1.58090000      -0.57350000      -0.17820000
C       -1.86420000      -0.05760000      -1.58870000
O       -2.58680000       0.87470000      -1.82480000
C       -1.73650000      -2.10340000      -0.22420000
N       -1.21290000      -2.79800000       0.81340000
O       -2.33230000      -2.62230000      -1.15420000
H        0.89640000       1.76180000       0.66750000
H       -0.06030000       1.77350000      -0.82850000
H       -0.86930000       1.98200000       0.72240000
H        0.59130000      -0.55980000      -0.19850000
H       -0.59160000       0.07540000       2.26520000
H       -2.36720000      -0.16300000       0.46860000
H       -1.32220000      -0.59430000      -2.39300000
H       -0.66980000      -2.32310000       1.52010000
H       -1.28460000      -3.80220000       0.79360000
