19
Properties=species:S:1:pos:R:3 gdb_76326=T pbc="F F F"
C       -0.89350000       1.01720000       0.10680000
C        0.10070000      -0.12340000      -0.03660000
C        1.00480000      -0.22530000      -1.32300000
O        1.21720000       1.02630000      -1.91490000
C        2.23320000      -0.64030000      -0.42140000
C        2.50440000      -2.13630000      -0.36550000
O        3.41640000       0.08020000      -0.70580000
C        1.41610000      -0.04330000       0.73950000
O        1.78720000       0.55540000       1.71210000
H       -0.43490000       1.95520000      -0.21180000
H       -1.78200000       0.84380000      -0.50730000
H       -1.21030000       1.11900000       1.14870000
H       -0.37290000      -1.09640000       0.14310000
H        0.68930000      -0.97180000      -2.06150000
H        2.17760000       1.16000000      -1.90750000
H        2.96350000      -2.45720000      -1.30560000
H        3.19070000      -2.37050000       0.45320000
H        1.58230000      -2.70720000      -0.22040000
H        3.60060000       0.63330000       0.06560000
