20
Properties=species:S:1:pos:R:3 gdb_124563=T pbc="F F F"
C        0.03700000       1.52530000      -0.07580000
C        0.06300000       0.00230000       0.09890000
C        0.72380000      -0.38970000       1.42590000
C       -1.36600000      -0.57660000      -0.02410000
C       -1.41340000      -2.07060000      -0.08730000
C       -1.90050000      -2.98980000       0.81380000
N       -1.67140000      -4.18730000       0.22330000
N       -1.07830000      -4.03960000      -0.97430000
N       -0.92220000      -2.76190000      -1.16240000
H        1.04640000       1.94560000      -0.02090000
H       -0.39350000       1.80990000      -1.04170000
H       -0.56240000       2.00130000       0.71020000
H        0.65270000      -0.43020000      -0.71920000
H        0.75700000      -1.47570000       1.55330000
H        1.75090000      -0.01460000       1.47830000
H        0.17370000       0.03230000       2.27670000
H       -1.97440000      -0.22860000       0.82000000
H       -1.82910000      -0.17530000      -0.93330000
H       -2.37100000      -2.89460000       1.77780000
H       -1.88730000      -5.11310000       0.55640000
