16
Properties=species:S:1:pos:R:3 gdb_17539=T pbc="F F F"
O       -0.15940000       1.43210000       0.17520000
C       -0.11050000       0.03690000       0.09440000
C       -0.42690000      -0.82380000       1.27720000
C       -1.53740000      -0.17020000       2.11560000
C       -2.42240000      -0.18580000       0.85720000
C       -3.87120000      -0.31530000       0.73510000
O       -3.20880000       0.91490000       0.40210000
C       -1.34180000      -0.81930000       0.01780000
H       -0.95400000       1.73240000      -0.27800000
H        0.71600000      -0.32770000      -0.51460000
H        0.23350000      -1.61000000       1.61940000
H       -1.92230000      -0.81420000       2.90950000
H       -1.30400000       0.81920000       2.51440000
H       -4.30040000      -0.85770000      -0.10700000
H       -4.49400000      -0.28000000       1.62830000
H       -1.48980000      -1.56680000      -0.75280000
