16
Properties=species:S:1:pos:R:3 gdb_62225=T pbc="F F F"
O        0.88420000       1.75140000       0.01250000
C        0.36740000       0.63630000      -0.65680000
C        1.48970000       0.02550000      -1.52670000
O        1.06480000      -1.11120000      -2.27190000
C        0.68120000      -0.87280000      -3.60220000
C       -0.66120000      -0.27100000      -3.73560000
N       -1.71310000       0.19810000      -3.82800000
C       -0.16070000      -0.38360000       0.33350000
O       -0.11950000      -0.17450000       1.52280000
H        0.74480000       1.57340000       0.95730000
H       -0.47480000       0.92000000      -1.30920000
H        1.88610000       0.81020000      -2.18300000
H        2.30170000      -0.30920000      -0.87350000
H        1.40310000      -0.22810000      -4.12430000
H        0.67320000      -1.84350000      -4.10790000
H       -0.57610000      -1.31740000      -0.08750000
