16
Properties=species:S:1:pos:R:3 gdb_18137=T pbc="F F F"
C       -0.05380000       1.52620000      -0.14500000
C        0.05150000       0.02780000       0.03320000
C        1.30420000      -0.76830000      -0.16000000
N        2.46710000       0.03740000       0.28710000
C        1.97000000      -0.05830000       1.69800000
C        1.93050000       1.20090000       2.45060000
N        1.89880000       2.17520000       3.07130000
C        0.65610000      -0.69990000       1.22020000
H        0.89940000       2.01880000       0.05360000
H       -0.34200000       1.76160000      -1.17500000
H       -0.80870000       1.95230000       0.52280000
H       -0.82110000      -0.52440000      -0.31300000
H        1.42000000      -1.59200000      -0.85410000
H        3.34200000      -0.46480000       0.18640000
H        2.54350000      -0.78170000       2.28760000
H        0.11060000      -1.43490000       1.79690000
