18
Properties=species:S:1:pos:R:3 gdb_90936=T pbc="F F F"
C       -0.00240000       1.57270000      -0.03270000
C        0.03960000       0.05810000       0.04640000
O        0.77480000      -0.45680000      -1.08910000
C        1.49290000      -1.57650000      -0.64060000
C        2.52690000      -1.39140000       0.48180000
N        2.23310000      -0.10130000       1.13910000
C        0.78580000      -0.53890000       1.24100000
C        1.15730000      -1.98060000       0.75430000
O        0.73660000      -3.19590000       1.24830000
H        1.00930000       1.97260000       0.05790000
H       -0.42930000       1.89040000      -0.98790000
H       -0.62470000       1.97920000       0.77160000
H       -0.98400000      -0.35550000       0.02330000
H        1.70970000      -2.31150000      -1.40760000
H        3.52140000      -1.82120000       0.44310000
H        2.63510000      -0.12830000       2.07370000
H        0.31740000      -0.40650000       2.21560000
H        0.00810000      -3.51590000       0.70380000
