19
Properties=species:S:1:pos:R:3 gdb_52669=T pbc="F F F"
C       -0.10110000       1.51320000       0.00000000
C       -0.02730000       0.05950000       0.00440000
C        0.03480000      -1.14350000       0.03030000
C        0.06310000      -2.60590000       0.01050000
O       -1.23640000      -3.17330000       0.17250000
C        0.73840000      -3.15470000      -1.26900000
C        2.22760000      -2.78060000      -1.34760000
C        0.59610000      -4.66740000      -1.28190000
O        0.23500000      -5.31410000      -2.22910000
H        0.76830000       1.95320000       0.50050000
H       -0.13470000       1.90990000      -1.02040000
H       -0.99700000       1.86300000       0.52420000
H        0.62710000      -2.97060000       0.87960000
H       -1.81260000      -2.77500000      -0.48990000
H        0.21080000      -2.76660000      -2.14720000
H        2.66410000      -3.12550000      -2.28870000
H        2.34850000      -1.69610000      -1.28330000
H        2.79300000      -3.23370000      -0.52490000
H        0.89990000      -5.15980000      -0.32780000
