17
Properties=species:S:1:pos:R:3 gdb_74456=T pbc="F F F"
C       -0.03200000       1.47390000       0.08540000
C       -0.00970000      -0.01080000      -0.00240000
C       -0.07230000      -0.86110000      -1.02960000
C        0.01520000      -2.23230000      -0.31720000
C       -1.00970000      -2.02880000       0.85360000
C        0.10410000      -0.99860000       1.18440000
O        1.07860000      -1.96820000       0.67790000
C        0.13310000      -3.44450000      -1.08220000
C        0.20490000      -4.45530000      -1.72810000
H        0.88380000       1.85600000       0.55380000
H       -0.12550000       1.93200000      -0.90280000
H       -0.86850000       1.82540000       0.70280000
H       -0.15470000      -0.69900000      -2.09380000
H       -2.01040000      -1.67220000       0.60360000
H       -1.02520000      -2.87620000       1.54190000
H        0.31440000      -0.62720000       2.18650000
H        0.27680000      -5.34980000      -2.29610000
