20
Properties=species:S:1:pos:R:3 gdb_69964=T pbc="F F F"
C        0.05620000       1.47980000      -0.00060000
C        0.03060000      -0.03070000      -0.04120000
C       -1.35280000      -0.74780000      -0.08280000
C       -0.91320000      -1.50100000       1.20310000
N        0.39310000      -0.75530000       1.23830000
C        1.54630000      -1.38640000       0.56570000
C        1.20740000      -2.17960000      -0.68660000
C        1.24820000      -0.67960000      -0.74420000
O        2.11850000       0.02040000      -1.56150000
H        1.05520000       1.84540000       0.25160000
H       -0.21760000       1.89540000      -0.97720000
H       -0.65130000       1.85350000       0.74560000
H       -2.20080000      -0.07300000       0.05510000
H       -1.54260000      -1.36740000      -0.96300000
H       -1.51460000      -1.28580000       2.09030000
H       -0.81160000      -2.58650000       1.11270000
H        2.47720000      -1.54570000       1.09840000
H        2.07870000      -2.64820000      -1.13490000
H        0.29060000      -2.75100000      -0.79170000
H        1.90940000      -0.18840000      -2.47840000
