22
Properties=species:S:1:pos:R:3 gdb_116678=T pbc="F F F"
C        0.46190000       0.70580000       0.42840000
O       -0.43890000       0.15140000      -0.52250000
C       -1.21030000      -0.85820000      -0.07490000
N       -2.00510000      -1.44630000      -0.85630000
C       -2.84460000      -2.48000000      -0.28690000
C       -4.08080000      -1.92320000       0.39550000
C       -2.99280000      -3.74560000      -1.08760000
C       -2.24540000      -3.77970000       0.23240000
C       -0.75750000      -4.05120000       0.25100000
H        0.96970000       1.53010000      -0.07350000
H       -0.06810000       1.09350000       1.30700000
H        1.20720000      -0.03080000       0.75230000
H       -1.07560000      -1.09340000       0.99160000
H       -4.63820000      -1.28130000      -0.29490000
H       -4.74330000      -2.72890000       0.72590000
H       -3.81530000      -1.32040000       1.27180000
H       -3.97090000      -4.21080000      -1.15680000
H       -2.39300000      -3.81710000      -1.98930000
H       -2.78540000      -4.22680000       1.06460000
H       -0.25780000      -3.59650000      -0.60830000
H       -0.28210000      -3.65930000       1.15870000
H       -0.56220000      -5.12900000       0.21860000
