16
Properties=species:S:1:pos:R:3 gdb_36125=T pbc="F F F"
N       -0.05020000      -1.09170000      -0.48350000
C       -0.04440000       0.03530000      -0.22980000
C       -0.02260000       1.45950000       0.11160000
C        1.38610000       2.01510000       0.19820000
C        2.40110000       1.43560000       1.18490000
C        3.31370000       2.61210000       1.46580000
C        2.92170000       3.72250000       0.83550000
C        1.72080000       3.43740000      -0.00360000
O        1.96390000       2.44180000      -1.03290000
H       -0.58250000       2.01500000      -0.64690000
H       -0.53900000       1.59160000       1.06980000
H        1.91330000       1.06940000       2.09760000
H        2.93680000       0.58480000       0.74920000
H        4.19510000       2.52080000       2.09000000
H        3.40530000       4.68990000       0.87710000
H        0.99390000       4.19900000      -0.27060000
