16
Properties=species:S:1:pos:R:3 gdb_27563=T pbc="F F F"
C       -0.02280000       1.51000000       0.03110000
C        0.02110000       0.00470000      -0.00850000
C       -0.03370000      -0.69330000      -1.21430000
C        0.00980000      -2.09370000      -1.20850000
C        0.10800000      -2.73650000       0.03140000
C        0.15640000      -1.95250000       1.17740000
N        0.11520000      -0.61950000       1.17600000
C       -0.04420000      -2.83530000      -2.42340000
C       -0.08980000      -3.46190000      -3.45030000
H        0.87730000       1.90270000       0.51460000
H       -0.09950000       1.94110000      -0.96980000
H       -0.87710000       1.84860000       0.62590000
H       -0.10960000      -0.16080000      -2.15500000
H        0.14520000      -3.81720000       0.09210000
H        0.23270000      -2.42620000       2.15360000
H       -0.13000000      -4.01520000      -4.35590000
