16
Properties=species:S:1:pos:R:3 gdb_125820=T pbc="F F F"
C       -0.00950000       1.49720000       0.08360000
C       -0.00720000       0.00490000       0.01010000
N       -0.03490000      -0.61350000      -1.14690000
O       -0.02380000      -1.96780000      -0.86170000
C        0.01080000      -2.14640000       0.47350000
C        0.02300000      -0.93140000       1.09040000
N        0.05640000      -0.59770000       2.44130000
C        0.08580000      -1.48690000       3.48340000
N        0.08520000      -2.75040000       3.30800000
H        0.88860000       1.87410000       0.58700000
H       -0.03790000       1.91600000      -0.92380000
H       -0.88140000       1.86890000       0.63470000
H        0.02320000      -3.15360000       0.84610000
H        0.05910000       0.38180000       2.66820000
H        0.10910000      -0.97440000       4.45170000
H        0.10970000      -3.23170000       4.20320000
