23
Properties=species:S:1:pos:R:3 gdb_95760=T pbc="F F F"
C        0.03810000       1.53340000       0.08430000
C        0.02360000       0.01900000      -0.05740000
C        0.81680000      -0.49190000      -1.26310000
C        0.91230000      -2.01440000      -1.18710000
O        1.43280000      -2.42060000       0.06920000
C        0.73110000      -1.92200000       1.20070000
C       -0.63190000      -2.61600000       1.36440000
C        1.63710000      -2.19350000       2.39460000
O        0.58990000      -0.50890000       1.14210000
H        1.06580000       1.89590000       0.18340000
H       -0.41630000       2.00500000      -0.79260000
H       -0.52000000       1.83870000       0.97370000
H       -1.02190000      -0.31850000      -0.15400000
H        0.33600000      -0.18410000      -2.19870000
H        1.82430000      -0.06100000      -1.23640000
H       -0.07500000      -2.46670000      -1.37260000
H        1.60020000      -2.41380000      -1.93770000
H       -0.48580000      -3.69540000       1.45550000
H       -1.12520000      -2.24770000       2.26760000
H       -1.30120000      -2.43760000       0.52030000
H        2.59230000      -1.68770000       2.24120000
H        1.17670000      -1.81570000       3.31040000
H        1.81430000      -3.26670000       2.49620000
