19
Properties=species:S:1:pos:R:3 gdb_41782=T pbc="F F F"
C        0.20980000       1.60060000       0.24950000
O        1.41340000       1.51310000      -0.54120000
C        1.23310000       0.09270000      -0.75870000
C        2.38840000      -0.72950000      -0.27390000
C        2.23930000      -1.96680000       0.19450000
C        0.87970000      -2.62180000       0.28520000
C       -0.03130000      -1.95450000       1.33980000
O        0.05970000      -0.53940000       1.37700000
C       -0.05080000       0.09300000       0.13250000
H        0.40550000       1.92920000       1.27600000
H       -0.54090000       2.25160000      -0.21390000
H        1.02550000      -0.10190000      -1.82330000
H        3.36250000      -0.25080000      -0.32730000
H        3.10500000      -2.52660000       0.53670000
H        0.38420000      -2.58320000      -0.69330000
H        0.96490000      -3.68370000       0.53630000
H       -1.07380000      -2.26690000       1.16520000
H        0.25230000      -2.27750000       2.34570000
H       -0.97260000      -0.20080000      -0.38850000
