17
Properties=species:S:1:pos:R:3 gdb_32111=T pbc="F F F"
C        0.09000000       1.39170000      -0.06490000
N       -0.06000000      -0.03580000       0.08930000
C       -1.26610000      -0.68430000       0.04320000
C       -2.49550000      -0.00710000       0.09310000
C       -3.65690000      -0.77140000       0.07150000
C       -3.59600000      -2.15590000      -0.00160000
C       -2.31890000      -2.71990000      -0.05400000
O       -2.20510000      -4.06480000      -0.13250000
N       -1.19000000      -2.02620000      -0.03580000
H        1.15370000       1.63730000      -0.04670000
H       -0.33500000       1.76890000      -1.00700000
H       -0.38820000       1.93210000       0.76080000
H        0.72850000      -0.62560000      -0.12020000
H       -2.53840000       1.07190000       0.15010000
H       -4.62240000      -0.27660000       0.11050000
H       -4.47520000      -2.78510000      -0.02280000
H       -1.25560000      -4.24630000      -0.15510000
