17
Properties=species:S:1:pos:R:3 gdb_13565=T pbc="F F F"
C        0.35080000       1.57790000      -0.41340000
C        0.08950000       0.13330000      -0.06660000
N        1.25460000      -0.75410000       0.09410000
C        0.38440000      -0.49090000       1.25230000
C        1.01950000       0.25300000       2.41810000
O        0.04050000       0.75670000       3.28400000
C        1.95520000      -0.68040000       3.16240000
O        1.82100000      -0.90040000       4.34310000
H        1.25420000       1.95220000       0.07300000
H        0.48990000       1.68880000      -1.49390000
H       -0.49300000       2.20670000      -0.11180000
H       -0.77420000      -0.29410000      -0.57500000
H        1.07290000      -1.67600000      -0.29130000
H       -0.29480000      -1.27720000       1.57870000
H        1.65110000       1.06150000       2.01360000
H        0.25350000       0.38710000       4.15630000
H        2.75760000      -1.14720000       2.56030000
