16
Properties=species:S:1:pos:R:3 gdb_2243=T pbc="F F F"
C       -0.00980000       1.51120000      -0.00590000
C       -0.01980000       0.00800000       0.06530000
C       -1.29400000      -0.75410000      -0.27590000
O       -1.08500000      -2.08650000       0.18320000
C       -0.24650000      -2.02150000       1.33600000
C        0.65480000      -0.82500000       1.09820000
N        1.22890000      -0.70360000      -0.24960000
H        0.96040000       1.90030000       0.31110000
H       -0.18840000       1.85670000      -1.03080000
H       -0.78740000       1.94260000       0.63420000
H       -2.15520000      -0.28370000       0.22740000
H       -1.50920000      -0.80650000      -1.34910000
H       -0.83410000      -1.87490000       2.25730000
H        0.28000000      -2.97910000       1.41040000
H        1.23780000      -0.41530000       1.91700000
H        1.02740000      -1.54860000      -0.78350000
