18
Properties=species:S:1:pos:R:3 gdb_91600=T pbc="F F F"
C       -0.19440000       1.56170000      -0.02530000
C        0.03160000       0.05210000      -0.01470000
C        0.93890000      -0.50910000      -1.15790000
C        1.94540000      -1.33100000      -0.33330000
O        1.19080000      -1.81890000       0.74880000
C        0.78830000      -0.51660000       1.22300000
C        2.14370000       0.16050000       1.31030000
N        2.52430000       1.04920000       2.11750000
O        2.86860000      -0.39530000       0.28470000
H        0.75070000       2.11110000       0.01090000
H       -0.72930000       1.86320000      -0.93120000
H       -0.79200000       1.87700000       0.83600000
H       -0.93430000      -0.46040000      -0.04390000
H        0.38650000      -1.14830000      -1.85010000
H        1.44270000       0.27400000      -1.72860000
H        2.51260000      -2.12010000      -0.82230000
H        0.23610000      -0.58270000       2.15590000
H        3.48630000       1.33220000       1.92030000
