17
Properties=species:S:1:pos:R:3 gdb_20724=T pbc="F F F"
C       -0.00870000       1.46600000      -0.01990000
C        0.01560000      -0.02750000       0.05620000
N        0.01320000      -0.77260000      -1.04810000
N        0.03280000      -2.04390000      -0.59900000
C        0.02520000      -2.14530000       0.75740000
C        0.01900000      -3.43710000       1.50120000
C        0.02390000      -0.84110000       1.22040000
N       -0.01230000      -0.45260000       2.58460000
H        0.80020000       1.91220000       0.57090000
H        0.10700000       1.78520000      -1.05770000
H       -0.95190000       1.88200000       0.35630000
H        0.04330000      -2.79490000      -1.26730000
H        1.01640000      -3.88930000       1.57240000
H       -0.33850000      -3.25940000       2.51910000
H       -0.64230000      -4.17260000       1.03030000
H        0.89070000      -0.55430000       3.03700000
H       -0.28610000       0.51820000       2.67900000
