23
Properties=species:S:1:pos:R:3 gdb_81939=T pbc="F F F"
C       -0.22860000       1.54320000      -0.01010000
C        0.02210000       0.02730000       0.00070000
C        0.84160000      -0.48260000      -1.18580000
C        2.28160000      -0.05130000      -1.31880000
C        1.94160000      -1.36240000      -0.63600000
C        1.81480000      -1.28610000       0.85440000
C        2.78700000      -2.01740000       1.72810000
C        0.79250000      -0.49190000       1.21470000
C        0.36470000      -0.11140000       2.59880000
H        0.71320000       2.10100000       0.00600000
H       -0.77640000       1.83690000      -0.91130000
H       -0.82170000       1.85770000       0.85480000
H       -0.96490000      -0.46290000      -0.01730000
H        0.31740000      -0.75080000      -2.09600000
H        2.71070000      -0.09520000      -2.31490000
H        2.65980000       0.75560000      -0.69930000
H        2.23920000      -2.29550000      -1.10430000
H        3.81420000      -1.67610000       1.54490000
H        2.57640000      -1.89190000       2.79280000
H        2.77570000      -3.09320000       1.50970000
H        0.94480000      -0.62520000       3.36910000
H        0.46740000       0.96720000       2.77420000
H       -0.69460000      -0.35100000       2.76270000
