16
Properties=species:S:1:pos:R:3 gdb_48202=T pbc="F F F"
O       -0.17650000       0.23360000       0.57430000
C       -0.04630000       1.24750000      -0.05320000
C        1.30240000       1.99340000      -0.10140000
C        1.36990000       2.91440000      -1.23220000
N        1.41480000       3.64130000      -2.12930000
C        1.50880000       2.71730000       1.25230000
C        2.66790000       3.72630000       1.38610000
C        1.54710000       4.74580000       1.68160000
O        0.52560000       3.74080000       1.46010000
H       -0.87970000       1.72130000      -0.60740000
H        2.08650000       1.23320000      -0.19790000
H        1.46620000       1.94500000       2.03030000
H        3.36670000       3.52670000       2.19870000
H        3.22170000       3.91430000       0.46520000
H        1.51750000       5.12770000       2.70790000
H        1.45120000       5.57780000       0.97770000
