22
Properties=species:S:1:pos:R:3 gdb_11060=T pbc="F F F"
C        0.00270000       1.49410000       0.01700000
C        0.00290000      -0.02610000       0.00220000
C        0.63950000      -0.65550000      -1.26510000
C        0.09010000      -2.11660000      -1.27330000
C       -0.79210000      -2.16370000      -0.00500000
C        0.13240000      -2.14080000       1.23350000
C        0.68180000      -0.67960000       1.23490000
C       -1.37430000      -0.73620000       0.01860000
H        1.02380000       1.89330000       0.00440000
H       -0.51980000       1.90080000      -0.85640000
H       -0.49130000       1.88350000       0.91450000
H        0.32260000      -0.10980000      -2.16040000
H        1.73290000      -0.61120000      -1.23370000
H       -0.50720000      -2.30670000      -2.17050000
H        0.88350000      -2.86990000      -1.24930000
H       -1.51440000      -2.98280000      -0.00070000
H       -0.43440000      -2.34830000       2.14650000
H        0.92420000      -2.89330000       1.16820000
H        1.77350000      -0.63450000       1.16720000
H        0.39560000      -0.15140000       2.15070000
H       -1.95590000      -0.51770000       0.92090000
H       -1.98600000      -0.50050000      -0.85920000
