21
Properties=species:S:1:pos:R:3 gdb_70469=T pbc="F F F"
C       -0.10560000       1.52160000       0.00300000
C        0.02450000       0.02540000       0.04180000
C       -0.82260000      -0.84670000       0.93180000
C        0.67230000      -0.89580000       1.08500000
C        1.27170000      -1.77560000      -0.01680000
C        0.65460000      -0.81190000      -1.08830000
C       -0.25990000      -1.38780000      -2.17930000
C        0.52770000      -2.19050000      -3.18790000
O        0.38160000      -3.36580000      -3.40650000
H        0.83160000       1.99730000      -0.30950000
H       -0.88770000       1.83900000      -0.69810000
H       -0.37010000       1.92060000       0.98780000
H       -1.35410000      -0.30980000       1.71160000
H       -1.36410000      -1.70850000       0.54790000
H        1.16280000      -0.62710000       2.01320000
H        2.36350000      -1.78400000      -0.03820000
H        0.91630000      -2.81150000      -0.04060000
H        1.45450000      -0.23250000      -1.56420000
H       -1.04030000      -2.02760000      -1.75890000
H       -0.74090000      -0.55570000      -2.71390000
H        1.30460000      -1.60180000      -3.73290000
