20
Properties=species:S:1:pos:R:3 gdb_7670=T pbc="F F F"
C       -0.42490000       1.58400000      -0.00740000
C       -0.05830000       0.10270000       0.01790000
C       -1.28170000      -0.75850000      -0.30320000
C        1.19110000      -0.30240000      -0.84800000
C        1.89730000      -0.82230000       0.41840000
O        2.71460000       0.18640000       1.05440000
C        1.66700000       0.49930000       2.00230000
C        0.67560000      -0.43750000       1.29880000
H        0.44680000       2.22600000       0.14830000
H       -0.85640000       1.85220000      -0.97870000
H       -1.16770000       1.82590000       0.76210000
H       -1.66150000      -0.53770000      -1.30730000
H       -1.04090000      -1.82670000      -0.26610000
H       -2.09220000      -0.57460000       0.41190000
H        0.97350000      -1.07220000      -1.59470000
H        1.72600000       0.52020000      -1.32880000
H        2.38670000      -1.79990000       0.39640000
H        1.93850000       0.17000000       3.01440000
H        1.43450000       1.56990000       2.03300000
H        0.11200000      -1.13280000       1.92140000
