17
Properties=species:S:1:pos:R:3 gdb_76956=T pbc="F F F"
O       -0.03870000       1.37920000      -0.03310000
C       -0.00350000      -0.01120000       0.03690000
C       -0.54160000      -0.73700000       1.28680000
C       -1.02640000       0.05140000       2.44120000
O       -0.93140000      -0.30650000       3.59130000
C       -1.30810000      -0.69050000      -0.02860000
C       -2.66000000      -0.05540000      -0.34870000
O       -2.96960000      -1.14480000      -1.24740000
C       -1.75370000      -1.84690000      -0.91520000
H        0.71940000       1.73270000       0.44490000
H        0.84930000      -0.48700000      -0.44860000
H       -0.06720000      -1.67720000       1.55230000
H       -1.49070000       1.02610000       2.17920000
H       -3.37400000       0.00180000       0.48190000
H       -2.61460000       0.91120000      -0.86130000
H       -1.13240000      -2.04680000      -1.79750000
H       -1.95310000      -2.78970000      -0.38900000
