19
Properties=species:S:1:pos:R:3 gdb_97125=T pbc="F F F"
C       -0.90480000       0.56440000      -0.07050000
N       -0.58290000      -0.74070000      -0.63530000
C        0.52960000      -0.91370000      -1.18240000
O        1.59090000      -0.04110000      -1.36540000
C        2.41470000      -1.09500000      -1.95310000
C        1.23800000      -2.09190000      -1.85400000
N        1.50000000      -3.33440000      -1.16280000
C        1.49560000      -3.34560000       0.30030000
C        0.38170000      -3.97060000      -0.46550000
H       -0.06690000       1.27080000      -0.07400000
H       -1.73490000       1.00410000      -0.63470000
H       -1.25350000       0.43140000       0.95890000
H        2.75190000      -0.81930000      -2.95440000
H        3.26490000      -1.33520000      -1.31020000
H        0.79380000      -2.33080000      -2.82490000
H        2.26560000      -3.96140000       0.75570000
H        1.26780000      -2.42360000       0.82950000
H       -0.56860000      -3.44360000      -0.45080000
H        0.32440000      -5.05020000      -0.57190000
