14
Properties=species:S:1:pos:R:3 gdb_44174=T pbc="F F F"
N       -0.23360000       1.07260000      -0.78520000
C       -0.09620000      -0.00050000      -0.16490000
O        1.02190000      -0.55170000       0.47430000
C        0.31730000      -1.78060000       0.76400000
C       -0.38110000      -1.76500000       2.15780000
N       -1.53520000      -1.02770000       1.55990000
C       -0.98430000      -1.18370000       0.18290000
C       -0.70430000      -3.10050000       2.64950000
N       -0.98490000      -4.16140000       3.01360000
H        0.62240000       1.62950000      -0.78920000
H        0.85780000      -2.66660000       0.43960000
H        0.14930000      -1.19890000       2.92960000
H       -2.42860000      -1.48340000       1.70160000
H       -1.62600000      -1.61980000      -0.57990000
