21
Properties=species:S:1:pos:R:3 gdb_106465=T pbc="F F F"
C       -0.23090000       1.54300000      -0.04400000
C        0.07910000       0.04320000       0.03930000
C        0.78600000      -0.51310000      -1.18320000
C        0.77700000      -2.04570000      -1.42190000
C        0.58670000      -1.59630000      -2.88840000
O       -0.00630000      -0.35040000      -2.40730000
C        1.93880000      -1.28000000      -3.49350000
C        2.71120000      -0.46090000      -2.78150000
C        2.19030000       0.06890000      -1.46150000
H        0.67670000       2.15390000      -0.03370000
H       -0.78030000       1.76790000      -0.96240000
H       -0.84510000       1.85520000       0.80570000
H        0.69150000      -0.17300000       0.92490000
H       -0.85860000      -0.51100000       0.16050000
H        1.66380000      -2.63100000      -1.17270000
H       -0.12360000      -2.50100000      -1.00420000
H       -0.08930000      -2.14780000      -3.54450000
H        2.23800000      -1.70780000      -4.44430000
H        3.69530000      -0.14600000      -3.11620000
H        2.14550000       1.16470000      -1.49100000
H        2.87450000      -0.19030000      -0.64150000
