21
Properties=species:S:1:pos:R:3 gdb_69329=T pbc="F F F"
C        0.06040000       1.48520000      -0.16250000
C       -0.03560000       0.00120000       0.04980000
C       -1.26290000      -0.78020000      -0.38370000
O       -1.16680000      -2.05080000       0.24130000
C       -0.32130000      -1.98510000       1.40920000
C       -1.17390000      -1.77940000       2.66760000
C        0.47170000      -3.28890000       1.45430000
C        0.54910000      -0.76180000       1.15550000
O        1.16600000      -0.77010000      -0.13630000
H        0.99170000       1.87180000       0.25800000
H        0.04560000       1.72590000      -1.23120000
H       -0.78090000       2.00290000       0.30980000
H       -2.17290000      -0.23880000      -0.07600000
H       -1.30810000      -0.93730000      -1.46750000
H       -1.87930000      -2.60770000       2.77610000
H       -0.55000000      -1.73790000       3.56670000
H       -1.74700000      -0.84860000       2.60780000
H        1.10300000      -3.36630000       0.56670000
H        1.10400000      -3.33150000       2.34690000
H       -0.21140000      -4.14280000       1.47480000
H        1.12280000      -0.31340000       1.96340000
