18
Properties=species:S:1:pos:R:3 gdb_37337=T pbc="F F F"
C        0.04400000       1.47480000      -0.20120000
C        1.29430000       0.70250000       0.01800000
C        1.87890000       0.46910000       1.43190000
C        1.30480000      -0.95610000       1.67480000
C       -0.14990000      -0.50100000       1.43020000
C       -0.27800000       0.66130000       2.42150000
O        0.57890000       0.58460000       3.57060000
C        1.05030000       1.29540000       2.42010000
N       -0.02820000       0.01620000       0.01330000
H       -0.30810000       2.16600000       0.55400000
H       -0.21190000       1.76600000      -1.21710000
H        1.94840000       0.49040000      -0.82440000
H        2.96050000       0.58840000       1.49250000
H        1.62970000      -1.66580000       0.91240000
H        1.49080000      -1.35030000       2.67220000
H       -0.92810000      -1.26230000       1.47360000
H       -1.20900000       1.20020000       2.56370000
H        1.21130000       2.36050000       2.55310000
