17
Properties=species:S:1:pos:R:3 gdb_37073=T pbc="F F F"
C        0.02080000       1.45800000       0.03830000
C        1.34340000       0.72710000      -0.01140000
C        2.05950000       0.37600000       1.27500000
O        1.03690000      -0.18310000       2.10870000
C        0.06530000      -0.84290000       1.28760000
C        0.06750000      -0.05270000      -0.00330000
O       -0.03960000      -0.65590000      -1.26580000
C        1.28320000      -0.62660000      -1.79660000
O        1.91750000       0.54020000      -1.27820000
H       -0.26700000       1.93840000       0.96840000
H       -0.28720000       1.95230000      -0.87460000
H        2.85860000      -0.34880000       1.05380000
H        2.48870000       1.21780000       1.82520000
H        0.34380000      -1.88580000       1.06970000
H       -0.87460000      -0.83780000       1.84650000
H        1.83680000      -1.52920000      -1.48920000
H        1.23420000      -0.55760000      -2.88610000
