16
Properties=species:S:1:pos:R:3 gdb_4853=T pbc="F F F"
C        0.60220000       0.76620000      -0.31330000
O       -0.69990000       0.97400000       0.20260000
C       -1.56010000      -0.04900000      -0.00810000
C       -1.45000000      -1.27700000      -0.61680000
C       -2.74000000      -1.89540000      -0.51310000
C       -3.57420000      -1.03460000       0.15400000
N       -4.92020000      -1.09700000       0.58530000
N       -2.83610000       0.09850000       0.45830000
H        1.17860000       1.66100000      -0.07390000
H        1.07510000      -0.11040000       0.14800000
H        0.57800000       0.62380000      -1.40150000
H       -0.57110000      -1.68610000      -1.08680000
H       -3.01570000      -2.86500000      -0.89980000
H       -5.57150000      -0.84330000      -0.15260000
H       -5.15900000      -2.03480000       0.88550000
H       -3.17260000       0.87350000       1.00320000
