19
Properties=species:S:1:pos:R:3 gdb_47839=T pbc="F F F"
O        0.05550000       0.05990000      -0.55300000
C       -0.02780000       1.13580000      -0.02770000
C       -1.35500000       1.87510000       0.13770000
C       -1.50090000       2.85240000      -1.00550000
C       -1.05230000       4.10660000      -0.99090000
C       -0.37390000       4.78260000       0.17630000
C        1.04810000       4.27250000       0.50260000
C        1.15200000       2.91730000       1.20930000
O        1.11070000       1.76570000       0.35540000
H       -2.13580000       1.11440000       0.10300000
H       -1.41510000       2.38810000       1.10130000
H       -1.94920000       2.45280000      -1.91050000
H       -1.16870000       4.70260000      -1.89290000
H       -0.30900000       5.85580000      -0.02750000
H       -0.99210000       4.68820000       1.08040000
H        1.66050000       4.24040000      -0.40520000
H        1.52050000       5.00060000       1.17420000
H        2.13660000       2.84430000       1.67930000
H        0.40740000       2.83000000       2.00940000
