21
Properties=species:S:1:pos:R:3 gdb_81011=T pbc="F F F"
C       -0.14910000       1.51660000       0.01750000
C        0.06960000       0.00450000       0.03380000
C        1.05200000      -0.54820000      -1.06310000
C        2.02240000      -1.30380000      -0.14350000
O        3.09730000      -2.01850000      -0.68190000
C        1.07540000      -2.02610000       0.84860000
C        0.77790000      -0.56230000       1.29150000
C        2.27300000      -0.26230000       0.99190000
O        3.16420000      -0.72590000       1.97900000
H        0.78840000       2.07040000       0.12800000
H       -0.61170000       1.83470000      -0.92310000
H       -0.81260000       1.82200000       0.83390000
H       -0.90550000      -0.48350000      -0.07180000
H        0.56530000      -1.20800000      -1.78690000
H        1.55050000       0.25790000      -1.61550000
H        3.47570000      -1.50460000      -1.40410000
H        0.25510000      -2.61640000       0.43100000
H        1.62200000      -2.58920000       1.60240000
H        0.34220000      -0.33370000       2.26330000
H        2.53300000       0.76130000       0.68850000
H        3.85030000      -1.22310000       1.51530000
