20
Properties=species:S:1:pos:R:3 gdb_121691=T pbc="F F F"
C        0.19930000       1.53800000       0.00780000
C        0.05500000       0.01390000       0.00140000
C       -1.40710000      -0.44340000       0.01240000
C       -1.55280000      -1.96450000       0.00600000
C       -3.00930000      -2.42080000       0.01770000
O       -3.95130000      -1.67300000       0.03260000
N       -3.13720000      -3.82370000       0.01080000
C       -4.30450000      -4.58220000       0.01900000
O       -5.42990000      -4.16910000       0.03260000
H        1.25130000       1.83920000      -0.00020000
H       -0.28290000       1.98380000      -0.86890000
H       -0.26690000       1.97490000       0.89770000
H        0.56050000      -0.39870000      -0.88230000
H        0.57640000      -0.40760000       0.87150000
H       -1.92080000      -0.03960000       0.89200000
H       -1.93660000      -0.03070000      -0.85360000
H       -1.06130000      -2.39760000      -0.87690000
H       -1.04470000      -2.40640000       0.87510000
H       -2.27790000      -4.35430000      -0.00140000
H       -4.05180000      -5.66320000       0.00910000
