15
Properties=species:S:1:pos:R:3 gdb_62440=T pbc="F F F"
O       -0.11560000       1.39310000       0.08960000
C       -0.02320000       0.00420000       0.02410000
C        1.07510000      -0.60040000       0.72190000
C        1.99050000      -1.12400000       1.30200000
C       -1.34480000      -0.77270000       0.02770000
N       -2.50670000      -0.03090000      -0.35900000
C       -2.26530000       0.49220000      -1.60940000
N       -1.20410000       0.08330000      -2.21040000
C       -0.50160000      -0.72490000      -1.24570000
H        0.28710000       1.75390000      -0.70970000
H        2.80250000      -1.57360000       1.81750000
H       -1.47730000      -1.62590000       0.68110000
H       -3.05800000       0.47060000       0.31980000
H       -2.98180000       1.17730000      -2.05000000
H        0.09630000      -1.54750000      -1.61650000
