17
Properties=species:S:1:pos:R:3 gdb_6492=T pbc="F F F"
C        0.38990000       1.43370000      -0.03640000
C       -0.09580000       0.00190000      -0.03950000
C       -1.53000000      -0.22290000       0.41520000
C       -1.74920000       0.08310000       1.90390000
N       -0.95890000      -0.65220000       2.73770000
O       -2.57700000       0.88180000       2.29550000
C        0.54760000      -0.99330000      -0.91100000
O        0.84620000      -0.95820000       0.48970000
H        0.25820000       1.88520000       0.95200000
H        1.44910000       1.48050000      -0.29980000
H       -0.17920000       2.03310000      -0.75440000
H       -2.21200000       0.42050000      -0.14480000
H       -1.81030000      -1.26520000       0.22980000
H       -0.18000000      -1.17500000       2.36710000
H       -0.98870000      -0.43830000       3.72130000
H       -0.01460000      -1.86260000      -1.24880000
H        1.36740000      -0.69190000      -1.56140000
