18
Properties=species:S:1:pos:R:3 gdb_41309=T pbc="F F F"
C       -0.00880000       1.53390000      -0.26150000
C        1.47960000       1.60950000       0.26360000
C        1.30110000       0.16920000       0.79220000
O        0.59090000       0.05700000       2.05040000
C       -0.33030000      -0.78730000       1.27980000
C        0.56480000      -2.02930000       1.03380000
C        1.58530000      -1.25580000       0.16130000
N        0.67710000      -0.92910000      -1.00690000
C        0.03190000       0.00470000      -0.01870000
H       -0.71770000       2.05090000       0.38710000
H       -0.18540000       1.84650000      -1.29330000
H        2.22470000       1.69900000      -0.53040000
H        1.69220000       2.35480000       1.03110000
H       -1.31430000      -0.90500000       1.73420000
H        0.96090000      -2.39590000       1.98200000
H        0.09770000      -2.83030000       0.45910000
H        2.55580000      -1.70890000      -0.04100000
H        1.18840000      -0.35400000      -1.67590000
