18
Properties=species:S:1:pos:R:3 gdb_73918=T pbc="F F F"
C       -0.00870000       1.50260000       0.13310000
C       -0.01940000       0.01950000      -0.01660000
C       -0.01550000      -0.75140000      -1.12990000
C       -0.00950000      -2.22140000      -0.75620000
C        0.07870000      -2.15370000       0.76410000
C        1.22920000      -1.47370000       1.40490000
N       -0.04680000      -0.73320000       1.19350000
C       -0.00350000      -0.29920000      -2.51040000
O        0.04900000      -1.04830000      -3.46670000
H        0.85950000       1.81380000       0.72630000
H        0.01890000       2.02130000      -0.82590000
H       -0.89710000       1.82470000       0.68710000
H       -0.93130000      -2.72000000      -1.07660000
H        0.81650000      -2.76590000      -1.22560000
H       -0.49360000      -2.86080000       1.35550000
H        1.46620000      -1.67640000       2.44460000
H        2.07160000      -1.18530000       0.78150000
H       -0.04450000       0.80200000      -2.65800000
