22
Properties=species:S:1:pos:R:3 gdb_78671=T pbc="F F F"
C       -0.04630000       1.46910000       0.00030000
C        0.01990000      -0.05620000       0.01950000
C        0.84570000      -0.63880000      -1.11790000
N        2.13210000      -0.55220000      -0.33050000
C        1.16330000      -0.61060000       0.89730000
C        1.14120000      -2.15110000       0.78640000
C       -0.08210000      -2.97750000       1.16240000
C        1.53200000      -1.89220000      -0.66600000
C        2.19740000      -2.84440000      -1.61230000
H        0.94710000       1.90010000      -0.15690000
H       -0.70170000       1.82510000      -0.80190000
H       -0.44130000       1.85290000       0.94710000
H       -0.98010000      -0.47340000       0.18690000
H        0.81690000      -0.35540000      -2.16600000
H        1.44680000      -0.11160000       1.82400000
H        2.02790000      -2.54090000       1.30200000
H       -0.98190000      -2.64920000       0.63470000
H        0.07610000      -4.03370000       0.91830000
H       -0.28120000      -2.91650000       2.23820000
H        1.49360000      -3.60750000      -1.96410000
H        2.58500000      -2.31340000      -2.48720000
H        3.03810000      -3.35350000      -1.12860000
