16
Properties=species:S:1:pos:R:3 gdb_16210=T pbc="F F F"
O        0.05090000       0.00460000       0.00320000
C        0.00260000       1.20910000       0.00760000
C       -1.23870000       2.10190000       0.09420000
C       -0.62880000       3.46230000       0.45110000
O        0.68110000       3.45870000      -0.13450000
C        1.16630000       2.14690000      -0.05170000
C        2.41250000       1.82870000       0.75960000
C        2.44380000       1.78760000      -0.74510000
H       -1.71250000       2.12310000      -0.89420000
H       -1.96340000       1.71520000       0.81250000
H       -1.16710000       4.31770000       0.03920000
H       -0.55730000       3.58410000       1.54230000
H        2.88130000       2.67360000       1.25080000
H        2.42410000       0.89000000       1.30250000
H        2.47410000       0.81930000      -1.23310000
H        2.94580000       2.59660000      -1.26340000
