15
Properties=species:S:1:pos:R:3 gdb_25953=T pbc="F F F"
C       -0.30280000       1.40180000       0.04510000
C        0.23940000       0.00250000       0.00230000
N        1.23190000      -0.51430000       0.57940000
O       -0.55350000      -0.76120000      -0.83690000
C       -0.25510000      -2.06740000      -0.98560000
C        0.26280000      -2.79070000      -2.00240000
N        0.23810000      -4.13490000      -1.64240000
C       -0.28160000      -4.13960000      -0.46060000
O       -0.62100000      -2.91530000       0.01580000
H       -1.32710000       1.39460000       0.43020000
H        0.31560000       2.03780000       0.67950000
H       -0.33930000       1.82260000      -0.96420000
H        1.71690000       0.17040000       1.15450000
H        0.64790000      -2.44880000      -2.94810000
H       -0.47900000      -4.97960000       0.18590000
