13
Properties=species:S:1:pos:R:3 gdb_132841=T pbc="F F F"
F        0.01160000       0.03300000       0.00400000
C       -0.01040000       1.36330000       0.01100000
C       -1.22670000       2.02600000       0.03070000
C       -1.19190000       3.41660000       0.03720000
N       -0.06700000       4.14440000       0.02580000
C        1.08190000       3.47560000       0.00700000
C        1.18760000       2.07670000      -0.00150000
C        2.51170000       1.41350000      -0.02260000
O        3.55970000       2.01710000      -0.03370000
H       -2.15770000       1.47350000       0.04040000
H       -2.12340000       3.97660000       0.05250000
H        2.00030000       4.05560000      -0.00240000
H        2.48540000       0.30640000      -0.02760000
