23
Properties=species:S:1:pos:R:3 gdb_122833=T pbc="F F F"
C       -0.01360000       1.54880000      -0.01040000
C        0.08700000       0.02170000      -0.00140000
C        0.70100000      -0.52720000      -1.28140000
O        0.75450000      -1.93700000      -1.18880000
C        1.30250000      -2.54420000      -2.31660000
C        1.30020000      -4.06440000      -2.16480000
O        0.77040000      -4.61910000      -1.23510000
C        2.01790000      -4.82020000      -3.27800000
C        1.79440000      -6.32980000      -3.22190000
H        0.97270000       2.01460000      -0.11450000
H       -0.63650000       1.90420000      -0.83890000
H       -0.45710000       1.91770000       0.91870000
H        0.69330000      -0.31630000       0.84650000
H       -0.90480000      -0.42610000       0.12660000
H        0.10070000      -0.22420000      -2.15750000
H        1.71450000      -0.11410000      -1.43030000
H        0.73430000      -2.29690000      -3.23400000
H        2.33920000      -2.20810000      -2.50550000
H        1.70690000      -4.40370000      -4.24560000
H        3.08820000      -4.58190000      -3.19530000
H        2.10550000      -6.72980000      -2.25420000
H        0.73610000      -6.57350000      -3.34850000
H        2.36120000      -6.83490000      -4.00880000
