19
Properties=species:S:1:pos:R:3 gdb_114772=T pbc="F F F"
O       -0.14950000       1.49010000       0.20350000
C       -0.00810000       0.09410000       0.04900000
C       -1.36580000      -0.60010000      -0.06050000
O       -2.01700000      -0.30930000       1.18390000
C       -3.37860000      -0.63060000       1.26560000
C       -4.35600000       0.51250000       1.22810000
C       -4.22410000      -0.43550000       0.04120000
C       -3.49840000      -0.02720000      -1.18600000
C       -2.17200000      -0.12010000      -1.24430000
H       -0.79480000       1.60490000       0.91170000
H        0.56700000      -0.07690000      -0.86730000
H        0.54700000      -0.35370000       0.88770000
H       -1.19420000      -1.68780000      -0.14210000
H       -3.58100000      -1.47220000       1.92480000
H       -5.25120000       0.45330000       1.83760000
H       -3.93160000       1.50390000       1.11700000
H       -5.04880000      -1.12740000      -0.10670000
H       -4.07620000       0.33230000      -2.03310000
H       -1.62040000       0.15080000      -2.13920000
