20
Properties=species:S:1:pos:R:3 gdb_14093=T pbc="F F F"
C       -0.05930000       1.52330000      -0.07030000
C        0.07840000       0.01700000      -0.05430000
C        1.43960000      -0.63430000      -0.18140000
C        0.69690000      -0.68750000       1.11800000
C        1.08530000      -0.11530000       2.47640000
O        0.51320000      -1.25940000       3.14550000
C        0.18210000      -1.90730000       1.88850000
C       -1.28590000      -2.27450000       1.79800000
H        0.78850000       2.00470000       0.42860000
H       -0.09740000       1.90510000      -1.09630000
H       -0.97210000       1.84870000       0.44110000
H       -0.73890000      -0.51440000      -0.53750000
H        1.52690000      -1.54880000      -0.76070000
H        2.30900000       0.01480000      -0.24260000
H        2.16440000      -0.02770000       2.66340000
H        0.59600000       0.82140000       2.77450000
H        0.80570000      -2.80340000       1.74820000
H       -1.91760000      -1.38860000       1.90920000
H       -1.50860000      -2.74660000       0.83430000
H       -1.54370000      -2.98580000       2.58900000
