20
Properties=species:S:1:pos:R:3 gdb_62696=T pbc="F F F"
C        0.18820000       1.40230000       0.28150000
C       -0.02110000      -0.09690000       0.15920000
C       -1.50460000      -0.45140000       0.13590000
N        0.61110000      -0.76070000      -1.10200000
C        2.07780000      -1.28350000      -0.97900000
C        3.09660000      -0.88810000       0.10790000
C        2.13690000      -0.58760000       1.25210000
C        0.91210000      -1.06120000       0.93120000
C        0.96620000      -1.95880000      -0.30650000
H        1.23820000       1.67720000       0.16420000
H       -0.39310000       1.91860000      -0.48960000
H       -0.15490000       1.76370000       1.25670000
H       -2.00360000       0.03610000      -0.70730000
H       -1.65750000      -1.52950000       0.04990000
H       -1.98000000      -0.11150000       1.06160000
H        2.41320000      -1.57180000      -1.97160000
H        3.81780000      -1.71040000       0.22400000
H        3.67910000       0.01520000      -0.10850000
H        2.25940000       0.33450000       1.81220000
H        0.53980000      -2.94160000      -0.47300000
