21
Properties=species:S:1:pos:R:3 gdb_40768=T pbc="F F F"
C       -0.16020000       1.09230000      -0.45450000
C        1.20820000       0.96330000       0.12090000
N        0.29020000      -0.16850000       0.11980000
C       -0.23900000      -0.63180000       1.38650000
C       -0.88220000       0.27460000       2.49650000
C       -1.96080000      -0.82990000       2.71100000
C       -1.55230000      -1.41960000       1.35960000
C       -2.39020000      -1.65070000       0.16380000
N       -1.78270000      -2.78040000       0.90260000
H       -0.87630000       1.70040000       0.09220000
H       -0.30520000       1.08590000      -1.53130000
H        2.07730000       0.87410000      -0.52520000
H        1.39220000       1.47010000       1.06670000
H        0.54750000      -1.24480000       1.84560000
H       -0.25110000       0.53170000       3.34920000
H       -1.32300000       1.19000000       2.09530000
H       -1.71430000      -1.50130000       3.53850000
H       -2.99590000      -0.49960000       2.82090000
H       -3.47320000      -1.58860000       0.23820000
H       -1.97610000      -1.38500000      -0.80460000
H       -0.96390000      -3.11320000       0.39650000
