20
Properties=species:S:1:pos:R:3 gdb_41437=T pbc="F F F"
C        0.01340000       1.55890000      -0.22950000
C        1.58160000       1.49680000       0.07010000
C        1.28980000       0.19860000       0.89970000
C        1.04470000       0.30060000       2.39790000
C       -0.07760000      -0.76160000       2.54290000
C       -0.17870000      -1.19480000       1.09070000
N        1.29420000      -1.36870000       0.57780000
C        0.75760000      -0.96140000      -0.78940000
C        0.01640000       0.03750000       0.11350000
H       -0.51140000       2.17700000       0.50380000
H       -0.29760000       1.85620000      -1.23460000
H        2.17360000       1.36360000      -0.83550000
H        2.00650000       2.32530000       0.64110000
H        1.94250000       0.05360000       2.97270000
H        0.72400000       1.30340000       2.69750000
H        0.20800000      -1.60150000       3.18190000
H       -1.01870000      -0.35160000       2.92060000
H       -0.83400000      -2.02910000       0.82750000
H        1.52790000      -0.59540000      -1.47250000
H        0.16730000      -1.74500000      -1.27470000
