16
Properties=species:S:1:pos:R:3 gdb_35204=T pbc="F F F"
N       -0.09300000      -1.13900000      -0.04790000
C       -0.05540000       0.01610000      -0.01100000
C        0.01000000       1.45600000      -0.01620000
N        0.58450000       2.10070000       1.19130000
C        1.32460000       2.17100000      -0.04880000
C        2.76750000       1.68360000      -0.18520000
N        3.16090000       2.96930000      -0.87900000
C        2.34660000       3.02780000      -2.10250000
C        1.70470000       3.40710000      -0.82390000
H       -0.82660000       1.93920000      -0.51430000
H        0.08730000       2.96860000       1.38190000
H        3.26940000       1.60040000       0.77990000
H        2.94770000       0.78380000      -0.78060000
H        2.64110000       3.83120000      -2.77070000
H        2.06000000       2.10190000      -2.59720000
H        1.41400000       4.42350000      -0.57510000
