16
Properties=species:S:1:pos:R:3 gdb_8541=T pbc="F F F"
O        0.24380000       1.41200000      -0.19130000
C        0.10500000       0.02160000      -0.05650000
C        0.07270000      -0.62870000       1.34380000
C       -1.45050000      -0.30510000       1.54520000
C       -1.81200000      -1.76550000       1.89020000
C       -0.74480000      -1.85760000       0.78150000
O       -0.24650000      -2.96860000       0.13020000
C       -1.29860000      -0.62200000       0.01070000
H       -0.35580000       1.83960000       0.42960000
H        0.79760000      -0.42480000      -0.77390000
H        0.83310000      -0.65590000       2.12690000
H       -1.86530000       0.60100000       1.98120000
H       -1.52850000      -2.11810000       2.88790000
H       -2.82170000      -2.09890000       1.63030000
H        0.22980000      -3.51050000       0.76870000
H       -2.10390000      -0.63830000      -0.72510000
