21
Properties=species:S:1:pos:R:3 gdb_108405=T pbc="F F F"
C       -0.24620000       1.51100000       0.10040000
C        0.11290000       0.02660000      -0.04920000
C        0.83220000      -0.52720000       1.15140000
C        2.30050000      -0.22190000       1.51130000
C        2.46680000      -1.69650000       2.00370000
C        0.99680000      -1.95200000       1.64910000
C        0.05510000      -1.00020000       2.38000000
C        0.25390000      -0.50420000       3.75960000
O       -0.65200000      -0.30010000       4.53480000
H        0.64990000       2.12060000       0.25800000
H       -0.75060000       1.88560000      -0.79510000
H       -0.91080000       1.66890000       0.95570000
H       -0.79720000      -0.55900000      -0.22800000
H        0.74650000      -0.11040000      -0.93630000
H        2.89790000      -0.02130000       0.61820000
H        2.48580000       0.57940000       2.23130000
H        3.14650000      -2.26410000       1.36480000
H        2.76480000      -1.85470000       3.04350000
H        0.59470000      -2.87200000       1.23960000
H       -0.99350000      -1.18940000       2.16550000
H        1.30510000      -0.31700000       4.06510000
