21
Properties=species:S:1:pos:R:3 gdb_75305=T pbc="F F F"
C        0.01310000       1.51930000       0.00140000
C        0.00600000       0.01860000       0.00100000
C       -0.05260000      -0.72470000      -1.10770000
C       -0.02620000      -2.23350000      -1.01050000
C        0.11100000      -2.62160000       0.46680000
C        1.22700000      -1.82470000       1.17270000
C        0.08850000      -0.77710000       1.31300000
C       -0.06550000       0.00390000       2.59650000
O       -0.88270000      -1.87700000       1.22420000
H        0.92930000       1.92350000       0.45100000
H       -0.05690000       1.90760000      -1.01850000
H       -0.82350000       1.93170000       0.57810000
H       -0.12590000      -0.26640000      -2.09100000
H       -0.94740000      -2.66490000      -1.42460000
H        0.80370000      -2.65210000      -1.59690000
H        0.03960000      -3.69900000       0.63840000
H        1.49090000      -2.26950000       2.13490000
H        2.12150000      -1.54750000       0.61180000
H        0.72460000       0.75450000       2.69960000
H       -1.03170000       0.51760000       2.62930000
H       -0.01300000      -0.67630000       3.45030000
