16
Properties=species:S:1:pos:R:3 gdb_77848=T pbc="F F F"
C       -0.12240000       1.28220000      -0.37490000
N       -0.04170000      -0.05520000       0.17590000
C       -1.06180000      -1.09750000       0.18930000
C       -1.00850000      -1.96580000      -1.05210000
C       -0.65620000      -1.47640000      -2.35480000
C       -0.37190000      -1.08060000      -3.45420000
C        0.01510000      -2.15020000       0.08820000
C        1.00020000      -0.97600000       0.03440000
O        2.18270000      -0.83160000      -0.09490000
H        0.89900000       1.65750000      -0.47360000
H       -0.59960000       1.28930000      -1.36180000
H       -0.67480000       1.94610000       0.29760000
H       -1.91290000      -1.05200000       0.85690000
H       -1.75640000      -2.75790000      -1.05550000
H       -0.10890000      -0.73190000      -4.42220000
H        0.12300000      -3.08820000       0.61310000
