17
Properties=species:S:1:pos:R:3 gdb_15823=T pbc="F F F"
O       -0.19260000       1.38740000      -0.06090000
C       -0.06150000      -0.02670000      -0.09580000
C       -1.43090000      -0.60880000       0.22300000
C       -1.43950000      -2.12580000       0.18780000
O       -0.47370000      -2.79520000      -0.10990000
N       -2.63820000      -2.70150000       0.61450000
C       -3.90720000      -2.60400000      -0.08580000
C       -3.17120000      -3.90680000       0.02780000
H        0.66760000       1.76990000      -0.25600000
H        0.27020000      -0.38200000      -1.08130000
H        0.67240000      -0.38690000       0.63900000
H       -1.76860000      -0.26990000       1.20860000
H       -2.16830000      -0.22300000      -0.49230000
H       -4.78060000      -2.40960000       0.53060000
H       -3.91530000      -2.11770000      -1.05870000
H       -2.66670000      -4.28770000      -0.85600000
H       -3.51800000      -4.66260000       0.72640000
