23
Properties=species:S:1:pos:R:3 gdb_60479=T pbc="F F F"
C        0.04350000       1.57890000       0.06750000
C        0.02260000       0.05060000       0.03880000
O        0.74650000      -0.49420000       1.14230000
C       -1.40280000      -0.51390000      -0.03260000
C       -1.44700000      -2.04120000      -0.13680000
C       -2.86950000      -2.60630000      -0.12730000
C       -2.89370000      -4.14450000      -0.23710000
C       -4.24220000      -4.69860000      -0.22730000
C       -5.36490000      -5.12820000      -0.21740000
H        1.07170000       1.94370000       0.13890000
H       -0.41440000       2.00030000      -0.83330000
H       -0.51560000       1.95890000       0.93230000
H        0.58060000      -0.29590000      -0.84090000
H        0.33530000      -0.16360000       1.94920000
H       -1.95410000      -0.18640000       0.86230000
H       -1.92120000      -0.06370000      -0.88960000
H       -0.93560000      -2.35450000      -1.05790000
H       -0.86740000      -2.46630000       0.69080000
H       -3.38570000      -2.30880000       0.79340000
H       -3.45100000      -2.18280000      -0.95520000
H       -2.37980000      -4.45210000      -1.15750000
H       -2.31450000      -4.57730000       0.58920000
H       -6.35160000      -5.51990000      -0.21000000
