21
Properties=species:S:1:pos:R:3 gdb_101714=T pbc="F F F"
C        0.86170000       1.13900000      -0.20010000
C        0.13860000      -0.13150000       0.16280000
O        0.94670000      -1.23020000       0.61790000
C        0.00720000      -0.63160000       1.54420000
C        0.56380000       0.08090000       2.77040000
C        1.88730000      -0.51920000       3.26800000
O        2.93160000      -0.30990000       2.32120000
C        2.37730000       0.12790000       4.56110000
O        3.62480000      -0.40320000       4.95090000
H        1.67430000       1.34100000       0.50110000
H        1.28970000       1.05580000      -1.20420000
H        0.16970000       1.98830000      -0.20120000
H       -0.63220000      -0.44140000      -0.54470000
H       -0.83440000      -1.29480000       1.74380000
H        0.72670000       1.14410000       2.56670000
H       -0.18630000       0.01840000       3.56730000
H        1.75820000      -1.59780000       3.45140000
H        2.65310000      -0.75990000       1.51070000
H        2.43110000       1.22000000       4.41140000
H        1.66920000      -0.06640000       5.37380000
H        4.15490000      -0.42280000       4.14390000
