16
Properties=species:S:1:pos:R:3 gdb_124963=T pbc="F F F"
C       -0.04620000       1.44970000      -0.26430000
C       -0.08630000      -0.01480000      -0.00620000
C       -1.09280000      -0.93770000       0.04240000
C       -2.57860000      -0.75630000      -0.14820000
C       -2.94940000      -0.04820000      -1.37270000
C       -3.25800000       0.54060000      -2.37390000
C       -0.40730000      -2.14360000       0.35440000
N        0.88390000      -1.97380000       0.48210000
O        1.09010000      -0.61640000       0.25140000
H        0.80030000       1.70040000      -0.90990000
H       -0.96880000       1.77070000      -0.75060000
H        0.07150000       2.01190000       0.66920000
H       -3.05370000      -1.74470000      -0.15150000
H       -3.01160000      -0.22760000       0.71210000
H       -3.53290000       1.04990000      -3.26430000
H       -0.82370000      -3.13360000       0.48540000
