18
Properties=species:S:1:pos:R:3 gdb_93547=T pbc="F F F"
C       -0.01800000       1.55640000      -0.00720000
C       -0.06520000       0.01830000      -0.00040000
C        0.65470000      -0.53090000      -1.22920000
O        0.45070000      -1.93860000      -1.42030000
C        1.23990000      -2.84590000      -0.81150000
O        1.46410000      -3.91690000      -1.31500000
N        1.77360000      -2.50000000       0.42410000
C        1.32870000      -1.59210000       1.39410000
C        0.52900000      -0.53150000       1.26650000
H        1.01500000       1.91970000       0.02250000
H       -0.49920000       1.96380000      -0.90200000
H       -0.53730000       1.96110000       0.86650000
H       -1.11900000      -0.28710000      -0.07960000
H        0.25660000      -0.07500000      -2.13880000
H        1.72790000      -0.31390000      -1.17690000
H        2.35210000      -3.25110000       0.76740000
H        1.72060000      -1.84210000       2.37480000
H        0.30720000       0.00980000       2.18130000
