14
Properties=species:S:1:pos:R:3 gdb_7628=T pbc="F F F"
N       -0.08300000       1.33060000       0.05740000
C       -0.01500000      -0.05220000       0.08930000
O        1.01820000      -0.67780000      -0.04950000
N       -1.23840000      -0.67260000       0.27070000
C       -2.54230000      -0.22090000      -0.26370000
C       -2.83920000      -1.70730000      -0.56520000
O       -3.78300000      -2.30210000      -0.98240000
C       -1.42850000      -2.09080000      -0.08710000
H        0.81970000       1.77280000       0.14020000
H       -0.82180000       1.78240000       0.57420000
H       -3.21220000       0.24710000       0.46670000
H       -2.47360000       0.41460000      -1.15540000
H       -0.75090000      -2.43960000      -0.87510000
H       -1.38800000      -2.79030000       0.75400000
