14
Properties=species:S:1:pos:R:3 gdb_131891=T pbc="F F F"
C        0.10170000       1.51580000       0.00860000
C       -0.05910000       0.04100000       0.00150000
C       -1.13690000      -0.80840000       0.00280000
C       -0.65300000      -2.15420000      -0.00700000
C        0.69340000      -2.03600000      -0.01380000
O        1.06040000      -0.71390000      -0.00860000
N       -2.51090000      -0.41140000       0.01230000
O       -3.35460000      -1.30210000       0.01150000
O       -2.75770000       0.79460000       0.02040000
H        1.16370000       1.76820000       0.00050000
H       -0.38820000       1.96310000      -0.86080000
H       -0.37210000       1.95310000       0.89200000
H       -1.24940000      -3.05020000      -0.00850000
H        1.50680000      -2.74100000      -0.02220000
