19
Properties=species:S:1:pos:R:3 gdb_38724=T pbc="F F F"
C       -0.07760000       1.59810000      -0.17430000
C        1.38390000       1.98040000       0.07750000
O        2.46820000       1.89990000      -0.88170000
C        2.17130000       0.75020000      -0.09450000
C        1.26790000      -0.26360000      -0.79710000
C        0.00880000       0.04940000       0.01360000
O        0.26520000      -0.38470000       1.35860000
C        1.47570000      -0.01080000       2.03680000
C        2.76720000       0.17040000       1.16000000
H       -0.72980000       2.08050000       0.55850000
H       -0.45130000       1.83860000      -1.17530000
H        1.60220000       2.67280000       0.88640000
H        1.15830000      -0.02240000      -1.85650000
H        1.59250000      -1.29950000      -0.68210000
H       -0.90320000      -0.48190000      -0.27340000
H        1.31030000       0.94270000       2.55720000
H        1.61900000      -0.78350000       2.79830000
H        3.28600000      -0.77690000       0.98360000
H        3.44890000       0.84930000       1.68030000
