13
Properties=species:S:1:pos:R:3 gdb_48386=T pbc="F F F"
O       -0.37030000       0.37980000      -0.70880000
C       -0.00960000       1.10670000       0.17680000
C        1.23460000       1.95720000       0.09400000
O        2.19580000       1.62490000      -0.90290000
C        1.47400000       2.82220000      -1.12360000
C        0.53850000       2.88820000      -2.20720000
C       -0.22640000       3.00630000      -3.12550000
C        1.81200000       2.47030000       1.38080000
O        1.18750000       2.55240000       2.40650000
H       -0.55590000       1.21560000       1.13260000
H        2.05490000       3.73050000      -0.95540000
H       -0.90810000       3.08760000      -3.93670000
H        2.87940000       2.77060000       1.29600000
