15
Properties=species:S:1:pos:R:3 gdb_57039=T pbc="F F F"
O        0.00540000       1.47200000      -0.03870000
C        0.04450000       0.05560000      -0.00830000
C        0.65440000      -0.48330000      -1.23980000
N        1.16620000      -0.85070000      -2.20790000
C        0.75890000      -0.48030000       1.23630000
C        0.08110000      -0.12540000       2.59050000
N       -0.12760000      -1.56330000       2.78520000
C        0.45860000      -1.96580000       1.61190000
O        0.63830000      -3.03510000       1.10090000
H        0.89940000       1.79820000      -0.19580000
H       -1.00470000      -0.26000000       0.01800000
H        1.82830000      -0.25910000       1.19310000
H        0.74080000       0.33950000       3.32860000
H       -0.83920000       0.45920000       2.50060000
H       -0.53760000      -2.09230000       3.54050000
