16
Properties=species:S:1:pos:R:3 gdb_44745=T pbc="F F F"
N       -0.02690000       1.18630000       0.47450000
C        0.00910000      -0.00150000       0.04700000
O        1.17030000      -0.62850000      -0.31290000
C        1.06340000      -1.98300000      -0.78270000
C       -0.05640000      -2.09800000      -1.83920000
C       -1.03150000      -2.22320000      -0.62220000
C        0.17980000      -2.81390000       0.17240000
C       -1.28030000      -0.82720000      -0.09670000
O       -2.35810000      -0.38100000       0.19090000
H        0.91700000       1.57990000       0.50410000
H        2.08200000      -2.29280000      -1.01250000
H       -0.18250000      -1.26330000      -2.53260000
H        0.00290000      -3.03700000      -2.39380000
H       -1.96110000      -2.78340000      -0.71240000
H        0.28320000      -3.88610000      -0.00780000
H        0.26080000      -2.60650000       1.24200000
