17
Properties=species:S:1:pos:R:3 gdb_9206=T pbc="F F F"
C        0.06330000       1.53190000       0.00820000
C       -0.05550000       0.00970000       0.00310000
C       -1.48860000      -0.48760000       0.01470000
O       -2.44290000       0.25900000       0.02670000
C       -1.68240000      -1.99950000       0.01070000
N       -3.08740000      -2.31240000       0.02330000
C       -3.54580000      -3.58630000       0.01490000
O       -2.83630000      -4.57190000      -0.00080000
H        1.11380000       1.83400000      -0.00090000
H       -0.42930000       1.96520000      -0.86570000
H       -0.41200000       1.95790000       0.89510000
H        0.44180000      -0.42620000      -0.87440000
H        0.45860000      -0.43340000       0.86720000
H       -1.18410000      -2.42770000      -0.87040000
H       -1.16660000      -2.43430000       0.87840000
H       -3.71320000      -1.51900000       0.03300000
H       -4.65260000      -3.63170000       0.02460000
