15
Properties=species:S:1:pos:R:3 gdb_46016=T pbc="F F F"
O       -0.03120000      -0.02400000      -0.38350000
C       -0.01740000       1.10880000       0.02760000
C       -1.30970000       1.81600000       0.42990000
N       -1.08640000       3.21870000       0.74980000
C        0.10510000       3.56660000       1.37360000
N        1.22900000       2.97800000       1.19660000
C        1.25850000       1.92270000       0.19810000
C        0.02120000       4.70500000       2.24730000
C       -0.09780000       5.66330000       2.96360000
H       -2.02660000       1.72300000      -0.39180000
H       -1.71840000       1.25330000       1.28380000
H       -1.89740000       3.72570000       1.07180000
H        2.08530000       1.23510000       0.39620000
H        1.46330000       2.37270000      -0.78890000
H       -0.17420000       6.50890000       3.60240000
