21
Properties=species:S:1:pos:R:3 gdb_116386=T pbc="F F F"
C        0.12980000       1.57540000       0.16910000
C       -0.01940000       0.06060000      -0.00610000
C        0.59960000      -0.47300000      -1.30170000
C        0.78560000      -2.01230000      -1.27210000
O        1.36750000      -2.50920000      -2.45950000
C        0.55390000      -2.27680000      -3.59090000
C        0.33800000      -0.76760000      -3.82280000
C       -0.20650000      -0.13180000      -2.55330000
O       -1.21930000       0.53060000      -2.53550000
H        1.18520000       1.87160000       0.17070000
H       -0.37620000       2.10970000      -0.63800000
H       -0.30680000       1.90210000       1.11780000
H        0.45050000      -0.45320000       0.84250000
H       -1.08220000      -0.20480000       0.01250000
H        1.60500000      -0.04950000      -1.44290000
H        1.45830000      -2.29030000      -0.45600000
H       -0.18920000      -2.49570000      -1.08740000
H        1.06340000      -2.73300000      -4.44370000
H       -0.42240000      -2.77540000      -3.47090000
H        1.30660000      -0.31260000      -4.06280000
H       -0.35440000      -0.58310000      -4.64800000
