17
Properties=species:S:1:pos:R:3 gdb_81059=T pbc="F F F"
N       -0.01180000       0.99570000      -0.75040000
C       -0.01010000      -0.02850000       0.14900000
O        0.91290000      -0.28510000       0.89720000
C       -1.27310000      -0.84200000       0.13470000
C       -2.03560000      -1.46790000       1.32200000
C       -2.86890000      -1.75980000       0.04960000
N       -2.58650000      -0.35160000      -0.47680000
C       -1.55030000      -2.17840000      -0.66050000
O       -1.49130000      -2.16920000      -2.04130000
H        0.84280000       1.50860000      -0.89520000
H       -0.75590000       1.07560000      -1.42340000
H       -1.56860000      -2.30770000       1.84260000
H       -2.47500000      -0.75050000       2.01900000
H       -3.86080000      -2.20440000      -0.03720000
H       -3.01490000       0.33840000       0.14680000
H       -1.04080000      -3.06620000      -0.28680000
H       -1.99920000      -1.39060000      -2.31410000
