19
Properties=species:S:1:pos:R:3 gdb_115781=T pbc="F F F"
O       -0.02720000       1.28930000      -0.24610000
C        0.04390000      -0.12840000      -0.29140000
C       -1.32680000      -0.65360000       0.10900000
C       -2.43140000      -0.40410000      -0.96100000
C       -2.24970000      -1.86680000      -1.45970000
C       -1.52200000      -2.17380000      -0.13490000
O       -0.33550000      -2.95960000      -0.24070000
C       -0.19840000      -4.04230000       0.54780000
O        0.76930000      -4.74110000       0.52630000
H        0.83280000       1.64020000      -0.49460000
H        0.31160000      -0.48380000      -1.29830000
H        0.80490000      -0.51820000       0.40060000
H       -1.55130000      -0.30530000       1.12080000
H       -3.41360000      -0.23190000      -0.51530000
H       -2.22580000       0.39590000      -1.67300000
H       -3.14170000      -2.45360000      -1.68840000
H       -1.55810000      -1.93460000      -2.30270000
H       -2.18920000      -2.62040000       0.61130000
H       -1.07550000      -4.20600000       1.20480000
