21
Properties=species:S:1:pos:R:3 gdb_58269=T pbc="F F F"
C        0.04220000       1.53260000      -0.10470000
C        0.01600000       0.01870000       0.07410000
O        0.63010000      -0.38370000       1.29790000
C       -1.41560000      -0.55710000      -0.01560000
O       -2.07630000      -0.13360000      -1.19590000
C       -1.40700000      -2.08170000       0.05400000
C       -2.76030000      -2.82140000      -0.00340000
C       -2.18000000      -3.49880000      -1.25800000
O       -1.01870000      -2.63290000      -1.24140000
H        1.07040000       1.90300000      -0.07150000
H       -0.41540000       1.81530000      -1.05470000
H       -0.52700000       2.02430000       0.69590000
H        0.61840000      -0.45520000      -0.71120000
H        0.25160000       0.15340000       2.00300000
H       -1.99830000      -0.16920000       0.83350000
H       -1.74840000      -0.73000000      -1.88500000
H       -0.72830000      -2.41830000       0.84380000
H       -2.99700000      -3.47030000       0.84040000
H       -3.60010000      -2.15680000      -0.21190000
H       -1.89210000      -4.54870000      -1.12390000
H       -2.75020000      -3.39980000      -2.18780000
