13
Properties=species:S:1:pos:R:3 gdb_19327=T pbc="F F F"
C        0.00410000      -1.18880000      -0.11620000
C        0.04720000       0.01070000      -0.03740000
C        0.06250000       1.42030000       0.11560000
O        0.20660000       2.28380000      -1.02240000
C        1.13430000       2.43260000       0.04120000
C        0.46800000       3.24440000       1.20830000
N       -0.90590000       3.59650000       0.77710000
C       -0.61430000       2.24210000       1.28640000
H       -0.02710000      -2.24690000      -0.20130000
H        2.19080000       2.32770000      -0.17390000
H        0.98920000       3.77410000       1.99340000
H       -1.33170000       4.11180000       1.54850000
H       -1.11540000       1.80650000       2.13970000
