15
Properties=species:S:1:pos:R:3 gdb_126067=T pbc="F F F"
C        0.06220000       1.54390000      -0.30840000
C       -0.02360000       0.07920000       0.02460000
O        1.17880000      -0.69000000       0.00510000
C        0.51110000      -0.54850000       1.25850000
C        1.20620000       0.17220000       2.33690000
C        1.13000000       0.03260000       3.69190000
N        1.97650000       0.96400000       4.23880000
N        2.54730000       1.63220000       3.34420000
O        2.07220000       1.14650000       2.06880000
H        0.91500000       2.01850000       0.17690000
H        0.16270000       1.66870000      -1.39130000
H       -0.85600000       2.05300000       0.00290000
H       -0.87450000      -0.44410000      -0.41770000
H        0.01620000      -1.45120000       1.61710000
H        0.55280000      -0.64530000       4.29670000
