20
Properties=species:S:1:pos:R:3 gdb_76525=T pbc="F F F"
C       -0.08170000       0.70830000      -2.11710000
C        0.07580000      -0.39730000      -1.09770000
C        1.34390000      -0.62180000      -0.31150000
C        2.58690000       0.22380000      -0.48480000
C        0.12210000      -0.04990000       0.37990000
N       -0.04410000       1.30560000       0.94570000
C       -0.80650000       0.75330000       2.11390000
C       -0.69450000      -0.64950000       1.48010000
O       -1.09590000      -1.74650000       1.74510000
H        0.29870000       1.66170000      -1.74300000
H        0.43910000       0.46720000      -3.05010000
H       -1.14010000       0.85710000      -2.35190000
H       -0.48850000      -1.30200000      -1.31180000
H        1.54360000      -1.65900000      -0.05120000
H        2.35270000       1.26590000      -0.71700000
H        3.19840000       0.21210000       0.42430000
H        3.20540000      -0.16300000      -1.30170000
H        0.84130000       1.70620000       1.24090000
H       -0.30670000       0.83820000       3.08540000
H       -1.82280000       1.15070000       2.19920000
