21
Properties=species:S:1:pos:R:3 gdb_86154=T pbc="F F F"
C       -0.07510000       1.57570000       0.02890000
C        0.01440000       0.04210000       0.00780000
C        0.66730000      -0.47880000      -1.28150000
C        0.93960000      -1.99120000      -1.23690000
C        1.53950000      -2.53490000      -2.53350000
C        1.80320000      -2.33950000      -0.02010000
O        2.61380000      -3.24550000      -0.03360000
C        1.56270000      -1.53800000       1.19980000
C        0.74010000      -0.48230000       1.21960000
H        0.92300000       2.02610000       0.00120000
H       -0.63430000       1.94300000      -0.83720000
H       -0.58030000       1.93270000       0.93220000
H       -1.01620000      -0.34850000       0.05380000
H        0.03430000      -0.23960000      -2.14380000
H        1.61810000       0.05090000      -1.43490000
H       -0.02370000      -2.49690000      -1.05540000
H        2.47670000      -2.02160000      -2.77410000
H        1.76460000      -3.59850000      -2.43710000
H        0.84870000      -2.39150000      -3.37000000
H        2.08950000      -1.87150000       2.08880000
H        0.57250000       0.04930000       2.15550000
