21
Properties=species:S:1:pos:R:3 gdb_116322=T pbc="F F F"
C       -0.05900000       1.52630000      -0.00530000
C        0.00980000      -0.00200000       0.02400000
C        0.73690000      -0.55080000       1.25180000
O        0.03760000      -0.10120000       2.40150000
C        0.55300000      -0.62760000       3.60960000
C        0.27610000      -2.13010000       3.73340000
C        0.62370000      -2.84850000       2.44110000
O       -0.36430000      -2.79300000       1.40290000
C        0.84740000      -2.06520000       1.21490000
H        0.94360000       1.96820000      -0.03210000
H       -0.60080000       1.87580000      -0.88920000
H       -0.56900000       1.90630000       0.88290000
H       -0.99760000      -0.43190000       0.01650000
H        0.52270000      -0.37550000      -0.87110000
H        1.77050000      -0.15350000       1.27610000
H        1.63920000      -0.44210000       3.66810000
H        0.07480000      -0.06950000       4.41950000
H        0.86070000      -2.54540000       4.56190000
H       -0.78170000      -2.30440000       3.95720000
H        1.10310000      -3.82280000       2.53290000
H        1.50560000      -2.45850000       0.43810000
