19
Properties=species:S:1:pos:R:3 gdb_86800=T pbc="F F F"
O        0.07000000       1.47370000       0.06480000
C        0.06980000       0.05210000       0.04820000
C       -1.34550000      -0.58460000      -0.01590000
C       -1.22430000      -1.81920000      -0.94430000
C       -2.45180000      -2.02110000      -1.86470000
C       -2.34940000      -3.20580000      -2.70810000
C       -2.23750000      -4.19020000      -3.38930000
C        0.06900000      -1.55630000      -1.68330000
C        0.76720000      -0.55820000      -1.14590000
H       -0.27570000       1.76950000      -0.78500000
H        0.58330000      -0.22070000       0.97900000
H       -1.74790000      -0.82650000       0.97060000
H       -2.02140000       0.15280000      -0.46710000
H       -1.11780000      -2.73440000      -0.34580000
H       -3.35540000      -2.09050000      -1.24550000
H       -2.57740000      -1.12990000      -2.49380000
H       -2.15280000      -5.05700000      -3.99660000
H        0.37250000      -2.16210000      -2.53010000
H        1.73960000      -0.20730000      -1.47400000
