14
Properties=species:S:1:pos:R:3 gdb_12657=T pbc="F F F"
O        0.36090000       1.15380000       0.61310000
C       -0.03890000      -0.06150000       0.05350000
C       -1.54580000      -0.17600000      -0.25600000
C       -1.63690000      -1.35860000      -1.24840000
C       -0.35690000      -1.28080000      -2.07490000
O       -0.10690000      -1.80420000      -3.12520000
C        0.60020000      -0.33560000      -1.29590000
O        1.60880000       0.17760000      -1.70490000
H        1.17900000       1.40640000       0.16050000
H        0.23860000      -0.91290000       0.70720000
H       -2.14590000      -0.32070000       0.64360000
H       -1.87290000       0.75420000      -0.73240000
H       -1.63840000      -2.32140000      -0.72000000
H       -2.52140000      -1.34500000      -1.88850000
