17
Properties=species:S:1:pos:R:3 gdb_28588=T pbc="F F F"
N        0.28150000       1.27550000      -0.20120000
C       -0.01430000      -0.07550000      -0.08440000
C       -1.10930000      -0.77270000       0.32850000
C       -0.71260000      -2.15460000       0.32530000
C        0.57470000      -2.20250000      -0.10040000
O        1.01780000      -0.91550000      -0.34980000
C        1.52900000      -3.29090000      -0.32420000
C        2.62140000      -3.17360000      -1.32990000
N        2.94260000      -3.16930000       0.10580000
H        0.88590000       1.47940000      -0.98780000
H       -0.54940000       1.84970000      -0.23500000
H       -2.06880000      -0.36320000       0.59980000
H       -1.31930000      -3.00420000       0.59850000
H        1.10040000      -4.27150000      -0.13620000
H        2.95210000      -4.05500000      -1.87270000
H        2.69070000      -2.24080000      -1.88170000
H        3.10600000      -2.21100000       0.40810000
