21
Properties=species:S:1:pos:R:3 gdb_81014=T pbc="F F F"
C        0.00700000       1.54360000       0.07340000
C       -0.01210000       0.02820000      -0.00920000
C        0.21740000      -0.66640000      -1.38630000
C       -0.71880000      -1.80690000      -0.88490000
C        0.07530000      -2.70950000       0.03190000
C        0.84820000      -2.13830000       0.96040000
C        0.89560000      -0.62970000       1.05330000
C       -1.39750000      -0.70390000      -0.00710000
O       -2.03620000      -1.03090000       1.19260000
H        1.01960000       1.94170000      -0.06420000
H       -0.63430000       1.98780000      -0.69550000
H       -0.35450000       1.88580000       1.05010000
H       -0.23310000      -0.09260000      -2.20160000
H        1.23820000      -0.94910000      -1.65280000
H       -1.32860000      -2.35150000      -1.60660000
H        0.00170000      -3.78760000      -0.07210000
H        1.45080000      -2.72300000       1.65000000
H        1.92890000      -0.27340000       0.93570000
H        0.58220000      -0.30250000       2.05550000
H       -2.12030000      -0.13400000      -0.59910000
H       -1.49740000      -1.70790000       1.62250000
