19
Properties=species:S:1:pos:R:3 gdb_127427=T pbc="F F F"
C       -0.06620000       1.38420000      -0.05300000
N       -0.01010000      -0.05620000       0.03390000
N       -0.02760000      -0.79430000      -1.09270000
C        0.03530000      -2.06520000      -0.68830000
C        0.03850000      -3.19910000      -1.66320000
C        0.09310000      -2.12410000       0.72130000
O        0.16560000      -3.21760000       1.53970000
C        0.06260000      -0.81740000       1.16720000
C        0.09730000      -0.26800000       2.55240000
H        0.82530000       1.84520000       0.38680000
H       -0.11750000       1.63990000      -1.11080000
H       -0.95140000       1.78010000       0.45720000
H        0.94840000      -3.80780000      -1.58420000
H       -0.81790000      -3.87000000      -1.51780000
H       -0.01360000      -2.80640000      -2.68080000
H        0.17220000      -4.00820000       0.99240000
H        0.96620000       0.37960000       2.72230000
H       -0.79860000       0.31850000       2.79060000
H        0.15350000      -1.09530000       3.26320000
