23
Properties=species:S:1:pos:R:3 gdb_77686=T pbc="F F F"
C       -0.25220000       1.47120000       0.07870000
C       -0.04780000      -0.04310000      -0.00390000
C       -1.35920000      -0.75800000      -0.31200000
C        1.18120000      -0.42090000      -0.90050000
C        2.02210000      -0.59200000       0.36920000
C        3.30260000      -1.33590000       0.57990000
C        3.27180000       0.16930000       0.71920000
C        0.75330000      -0.60130000       1.23120000
O        0.73760000       0.08820000       2.45640000
H        0.69160000       2.00450000       0.24140000
H       -0.67940000       1.85160000      -0.85550000
H       -0.93570000       1.73330000       0.89340000
H       -1.77750000      -0.42890000      -1.27060000
H       -1.21650000      -1.84270000      -0.36600000
H       -2.10740000      -0.55760000       0.46380000
H        1.03120000      -1.36020000      -1.44250000
H        1.51090000       0.34260000      -1.61160000
H        3.40700000      -1.92550000       1.48560000
H        3.79740000      -1.75800000      -0.28930000
H        3.74330000       0.76980000      -0.05240000
H        3.35350000       0.57840000       1.72210000
H        0.43240000      -1.62110000       1.47110000
H        1.06220000       0.98080000       2.29550000
