23
Properties=species:S:1:pos:R:3 gdb_62711=T pbc="F F F"
C       -0.13220000       1.54290000       0.00560000
C       -0.02690000       0.01370000      -0.00020000
C       -1.40890000      -0.54830000      -0.35190000
C        1.22750000      -0.63720000      -0.67210000
C        2.12040000      -0.16200000       0.52440000
C        3.22570000      -1.18610000       0.77510000
C        2.42570000      -2.49640000       0.55110000
C        1.05350000      -1.90950000       0.22570000
C        0.77910000      -0.67510000       1.15080000
H        0.80150000       2.05260000       0.24710000
H       -0.46100000       1.90480000      -0.97570000
H       -0.88380000       1.86920000       0.73430000
H       -1.73260000      -0.17550000      -1.33090000
H       -1.45100000      -1.63780000      -0.38560000
H       -2.15320000      -0.21200000       0.37970000
H        1.49780000      -0.62110000      -1.73200000
H        2.39190000       0.88800000       0.61300000
H        4.05880000      -1.07100000       0.07390000
H        3.63750000      -1.10660000       1.78660000
H        2.82000000      -3.10010000      -0.27300000
H        2.39870000      -3.13570000       1.43970000
H        0.25290000      -2.61540000       0.01410000
H        0.52690000      -0.70300000       2.21490000
