15
Properties=species:S:1:pos:R:3 gdb_6353=T pbc="F F F"
C       -0.00450000       1.43230000      -0.15070000
O       -0.03940000       0.01110000      -0.29100000
C       -1.21000000      -0.57140000      -0.03170000
N       -2.27060000       0.09060000       0.20330000
N       -1.11440000      -1.96690000      -0.13020000
C       -0.00540000      -2.76370000       0.20090000
N       -0.24920000      -4.10140000      -0.08470000
O        1.00780000      -2.36570000       0.72010000
H        1.03120000       1.71530000      -0.34040000
H       -0.67430000       1.90890000      -0.87120000
H       -0.30710000       1.72820000       0.85690000
H       -3.05730000      -0.51580000       0.41950000
H       -2.00310000      -2.44020000      -0.16760000
H       -0.79460000      -4.31380000      -0.90690000
H        0.57580000      -4.67270000       0.02110000
