22
Properties=species:S:1:pos:R:3 gdb_76805=T pbc="F F F"
C       -0.25780000       1.64400000      -0.07030000
C       -0.05570000       0.13020000      -0.00170000
C        0.92650000      -0.59870000      -1.03420000
C        1.45310000       0.13020000      -2.25810000
C        1.83990000      -0.77140000       0.19660000
C        2.51670000      -1.62140000       1.31360000
C        1.93410000      -0.28460000       1.94550000
C        2.58480000       0.48390000       0.78800000
N        0.67810000      -0.60590000       1.12670000
H        0.64080000       2.22070000      -0.29350000
H       -0.99350000       1.87550000      -0.84950000
H       -0.66500000       2.00620000       0.87970000
H       -1.05500000      -0.31470000      -0.01930000
H        0.47660000      -1.55350000      -1.32160000
H        1.94970000       1.06830000      -1.99200000
H        2.18060000      -0.48900000      -2.79410000
H        0.64270000       0.36600000      -2.95640000
H        1.98400000      -2.53250000       1.58480000
H        3.60430000      -1.72960000       1.32290000
H        1.90290000      -0.02850000       3.00790000
H        3.67820000       0.48440000       0.74010000
H        2.18560000       1.46990000       0.57060000
