17
Properties=species:S:1:pos:R:3 gdb_16188=T pbc="F F F"
O        0.09060000       1.30330000      -0.43100000
C        0.04000000       0.03160000       0.19740000
C       -1.36410000      -0.51030000       0.21630000
C       -2.41930000       0.10210000       1.12580000
O       -3.52530000      -0.79770000       1.08110000
C       -3.00840000      -2.11450000       0.90090000
C       -1.75610000      -1.93460000       0.06140000
N       -1.86920000      -1.01080000      -1.07650000
H       -0.24280000       1.17230000      -1.32640000
H        0.70240000      -0.69030000      -0.30140000
H        0.40960000       0.18030000       1.21800000
H       -2.01790000       0.19930000       2.14790000
H       -2.77550000       1.08390000       0.79980000
H       -2.74950000      -2.58590000       1.86300000
H       -3.79180000      -2.71150000       0.42230000
H       -1.04790000      -2.75080000      -0.03890000
H       -2.84530000      -0.74070000      -1.19520000
