14
Properties=species:S:1:pos:R:3 gdb_66534=T pbc="F F F"
O        0.28740000       1.33980000       0.28160000
C        0.14970000      -0.00030000       0.10970000
C        0.94170000      -1.01730000      -0.70440000
C        0.89470000      -1.09510000       0.83110000
C       -0.34170000      -2.03300000       0.73510000
C       -0.30020000      -1.94940000      -0.77170000
C       -1.13090000      -0.92390000       0.01960000
C       -2.51920000      -0.66600000      -0.01290000
N       -3.65260000      -0.42520000      -0.04630000
H        0.07760000       1.78860000      -0.54680000
H        1.79330000      -0.88520000      -1.35650000
H        1.69940000      -1.01880000       1.54780000
H       -0.73960000      -2.79720000       1.38900000
H       -0.66670000      -2.63370000      -1.52480000
