17
Properties=species:S:1:pos:R:3 gdb_87273=T pbc="F F F"
C       -0.21170000       1.57980000       0.29770000
C       -0.15520000       0.07590000       0.21800000
O        0.83900000      -0.53110000      -0.57060000
C        0.91050000      -0.78520000       0.84230000
C        2.06710000      -0.09590000       1.49970000
O        2.43690000      -0.28070000       2.63200000
C        0.44950000      -2.18980000       1.24720000
C        0.98560000      -2.80260000       2.51720000
O       -0.34790000      -2.75450000       0.53740000
H        0.77910000       2.03570000       0.32790000
H       -0.73810000       1.96700000      -0.58080000
H       -0.77140000       1.89070000       1.18540000
H       -1.11920000      -0.43150000       0.15260000
H        2.57670000       0.62200000       0.82330000
H        0.80580000      -2.14540000       3.37190000
H        0.50820000      -3.77200000       2.66410000
H        2.07220000      -2.92110000       2.45680000
