20
Properties=species:S:1:pos:R:3 gdb_90473=T pbc="F F F"
C        0.15750000       1.56220000      -0.59670000
C        0.15710000       0.03520000      -0.56060000
C        1.15060000      -0.63560000      -1.54750000
C        1.53010000      -1.93320000      -0.84680000
C        2.59720000      -1.93400000       0.23290000
C        3.55130000      -0.81190000       0.37680000
O        3.29950000       0.37290000       0.31600000
N        1.14680000      -1.89150000       0.55340000
C        0.53800000      -0.56250000       0.81670000
H        1.15500000       1.94630000      -0.36310000
H       -0.13370000       1.93700000      -1.58370000
H       -0.54830000       1.97540000       0.13210000
H       -0.84920000      -0.32530000      -0.80950000
H        0.69380000      -0.83970000      -2.51930000
H        2.01780000       0.00810000      -1.71600000
H        1.37910000      -2.87760000      -1.36430000
H        3.04310000      -2.89550000       0.48000000
H        4.59610000      -1.15420000       0.55140000
H        1.22340000       0.09180000       1.35830000
H       -0.34120000      -0.72900000       1.44590000
