20
Properties=species:S:1:pos:R:3 gdb_108345=T pbc="F F F"
C       -0.18310000       1.31460000      -0.02720000
O        0.22820000      -0.04010000      -0.05580000
C        0.75580000      -0.54200000       1.12880000
C        0.78150000      -2.08990000       1.17240000
C        0.09230000      -2.05030000       2.57660000
C        0.07390000      -0.50010000       2.52870000
N        1.22830000       0.30000000       3.12320000
C        2.48600000      -0.45810000       2.97010000
C        1.94040000       0.21610000       1.77980000
H        0.65810000       2.00490000       0.11750000
H       -0.64290000       1.52080000      -0.99610000
H       -0.92210000       1.49860000       0.76410000
H        0.14730000      -2.51020000       0.38970000
H        1.76800000      -2.55640000       1.11820000
H       -0.91550000      -2.47170000       2.57020000
H        0.63880000      -2.50150000       3.40810000
H       -0.86910000       0.00290000       2.74020000
H        3.31580000       0.02590000       3.47850000
H        2.49820000      -1.53980000       3.05270000
H        2.42230000       1.08410000       1.33940000
