12
Properties=species:S:1:pos:R:3 gdb_11219=T pbc="F F F"
O       -0.72770000       0.71860000       0.53790000
C        0.08380000       0.96420000      -0.30830000
C        1.34330000       1.79810000      -0.05190000
O        2.46740000       0.98330000      -0.31590000
C        3.38480000       1.73680000      -1.08630000
C        2.57760000       2.91130000      -1.61900000
O        2.87380000       3.73810000      -2.42170000
O        1.36840000       2.87470000      -0.97800000
H        0.01040000       0.60100000      -1.35560000
H        1.34490000       2.19040000       0.97370000
H        4.22380000       2.10800000      -0.48150000
H        3.77910000       1.12840000      -1.90400000
