13
Properties=species:S:1:pos:R:3 gdb_1651=T pbc="F F F"
C        0.12440000       1.40950000       0.12920000
O        0.13090000      -0.02460000       0.06990000
C        0.83910000      -0.54940000      -0.92880000
O        1.45300000       0.07890000      -1.75650000
C        0.79030000      -2.09670000      -0.91600000
C        1.57600000      -2.74780000      -2.02650000
O        0.16770000      -2.69150000      -0.07520000
H        1.14060000       1.79090000       0.25680000
H       -0.29620000       1.82760000      -0.78880000
H       -0.49400000       1.66650000       0.98830000
H        1.20850000      -2.40370000      -2.99850000
H        2.62560000      -2.44150000      -1.97330000
H        1.49010000      -3.83150000      -1.94750000
