13
Properties=species:S:1:pos:R:3 gdb_840=T pbc="F F F"
C        0.00820000       1.47560000       0.07070000
C        0.01300000      -0.01380000      -0.02510000
C       -0.13950000      -0.79820000      -1.13180000
N       -0.05580000      -2.11340000      -0.67490000
C        0.13940000      -2.03490000       0.66260000
O        0.26000000      -3.16080000       1.38800000
N        0.18880000      -0.80860000       1.10490000
H        0.95370000       1.84880000       0.47960000
H       -0.14200000       1.93060000      -0.91220000
H       -0.78870000       1.82670000       0.73570000
H       -0.29480000      -0.56860000      -2.17230000
H       -0.12460000      -2.95800000      -1.21530000
H        0.39020000      -2.87610000       2.30120000
