13
Properties=species:S:1:pos:R:3 gdb_4525=T pbc="F F F"
N        0.10240000       1.35510000      -0.13980000
C       -0.05510000      -0.02330000      -0.06030000
C       -1.14340000      -0.84350000      -0.07980000
C       -0.61180000      -2.18450000      -0.08290000
O       -1.30210000      -3.35930000      -0.11090000
C        0.73940000      -2.07980000      -0.06040000
O        1.74020000      -2.97400000       0.04830000
O        1.09210000      -0.73490000      -0.04560000
H        0.91160000       1.67910000       0.37630000
H       -0.72570000       1.85550000       0.15320000
H       -2.18120000      -0.54910000      -0.09660000
H       -2.23940000      -3.16160000      -0.03460000
H        2.12950000      -3.14110000      -0.81950000
