14
Properties=species:S:1:pos:R:3 gdb_35468=T pbc="F F F"
N       -0.07330000      -1.17390000      -0.16480000
C       -0.04580000      -0.02530000      -0.04390000
C       -0.00380000       1.43580000       0.05540000
O       -0.50730000       1.90190000       1.30490000
C        0.58110000       2.72900000       1.82480000
O        1.12400000       3.30100000       0.65880000
C        1.45840000       2.05050000       0.04670000
C        2.22190000       1.33200000       1.14760000
C        1.67160000       1.77010000       2.28140000
H       -0.58990000       1.87040000      -0.76120000
H        0.16630000       3.46880000       2.50410000
H        1.90980000       2.17970000      -0.93320000
H        2.94690000       0.54620000       0.99540000
H        1.83520000       1.44140000       3.29710000
