21
Properties=species:S:1:pos:R:3 gdb_126191=T pbc="F F F"
C        0.07500000       1.60590000       0.16130000
C        0.01630000       0.07490000       0.01470000
C       -1.38160000      -0.47050000      -0.02790000
C       -2.17390000      -0.72360000      -1.13940000
C       -1.89750000      -0.57610000      -2.59980000
N       -3.36850000      -1.18020000      -0.66690000
C       -4.52290000      -1.59530000      -1.43190000
N       -3.40510000      -1.24280000       0.68200000
C       -2.20770000      -0.81350000       1.06550000
H        1.11070000       1.95880000       0.20630000
H       -0.41660000       2.10010000      -0.68290000
H       -0.43510000       1.92960000       1.07390000
H        0.56180000      -0.22080000      -0.88980000
H        0.55600000      -0.38470000       0.85150000
H       -2.04890000      -1.51590000      -3.14420000
H       -2.54230000       0.17750000      -3.06870000
H       -0.86230000      -0.26570000      -2.75720000
H       -4.29070000      -2.45600000      -2.06880000
H       -5.29700000      -1.87590000      -0.71880000
H       -4.89220000      -0.78150000      -2.06500000
H       -1.96920000      -0.76720000       2.11920000
