15
Properties=species:S:1:pos:R:3 gdb_125402=T pbc="F F F"
C       -0.00900000       1.53070000       0.00060000
C       -0.00820000       0.03620000       0.01650000
C       -0.04850000      -0.83330000      -1.02670000
O       -0.03180000      -2.11120000      -0.59870000
N        0.02150000      -2.11250000       0.77680000
C        0.03560000      -0.84920000       1.13940000
C        0.09180000      -0.46680000       2.58400000
N        0.12400000      -1.51590000       3.44300000
O        0.10600000       0.70250000       2.92750000
H        0.88530000       1.92780000       0.48750000
H       -0.04880000       1.90700000      -1.02500000
H       -0.86310000       1.92760000       0.55530000
H       -0.09010000      -0.70110000      -2.09680000
H        0.11200000      -2.46270000       3.10190000
H        0.16430000      -1.32950000       4.43060000
