18
Properties=species:S:1:pos:R:3 gdb_125618=T pbc="F F F"
C       -0.07490000       1.46570000      -0.09100000
C       -0.03900000      -0.02230000       0.00220000
N       -0.03460000      -0.80290000      -1.06900000
N        0.00210000      -2.04260000      -0.51750000
C        0.01270000      -1.96840000       0.83070000
C        0.08090000      -3.14840000       1.74170000
C        1.40460000      -3.19500000       2.52960000
O        1.47260000      -4.31560000       3.39070000
N       -0.01040000      -0.69650000       1.19220000
H        0.80200000       1.90530000       0.39460000
H       -0.09460000       1.77660000      -1.13680000
H       -0.95950000       1.86410000       0.41570000
H        0.00660000      -2.85580000      -1.11100000
H       -0.75270000      -3.09460000       2.45230000
H       -0.03350000      -4.07950000       1.17690000
H        2.24360000      -3.29620000       1.83340000
H        1.53630000      -2.24690000       3.06750000
H        0.85910000      -4.17000000       4.11790000
