13
Properties=species:S:1:pos:R:3 gdb_20331=T pbc="F F F"
C       -0.03610000      -1.23380000      -0.00510000
C       -0.01870000      -0.03360000       0.00180000
C        0.00040000       1.42680000       0.01020000
N        1.34600000       1.99140000       0.00020000
C        2.14670000       2.27930000       1.07090000
N        3.30700000       2.73290000       0.67660000
N        3.29210000       2.74370000      -0.70640000
C        2.12350000       2.29610000      -1.08280000
H       -0.04790000      -2.29620000      -0.01130000
H       -0.53730000       1.81820000      -0.85980000
H       -0.52010000       1.80780000       0.89520000
H        1.83030000       2.14280000       2.09370000
H        1.78520000       2.17560000      -2.10050000
