20
Properties=species:S:1:pos:R:3 gdb_83313=T pbc="F F F"
C        0.25310000       1.64260000      -0.10960000
N        0.13040000       0.20360000       0.03610000
C        1.12270000      -0.76050000      -0.39320000
C        2.58010000      -0.34550000      -0.55060000
C        3.00790000       0.27760000       0.80340000
C        1.98040000      -0.21590000       1.85650000
C        1.68640000       0.80760000       2.93190000
O        1.73350000       0.59260000       4.11580000
C        0.73720000      -0.63270000       1.05430000
H        1.26900000       2.05380000      -0.03750000
H       -0.14760000       1.92220000      -1.08990000
H       -0.36620000       2.12870000       0.65070000
H        0.75250000      -1.56390000      -1.02710000
H        3.17190000      -1.24070000      -0.77020000
H        2.73460000       0.34590000      -1.38640000
H        4.02400000      -0.00990000       1.08470000
H        3.00350000       1.37100000       0.75080000
H        2.34440000      -1.11230000       2.37060000
H        1.40800000       1.81590000       2.54620000
H        0.05430000      -1.31830000       1.55100000
