20
Properties=species:S:1:pos:R:3 gdb_56846=T pbc="F F F"
C       -0.01090000       1.42410000      -0.07400000
C        0.15010000      -0.08500000       0.16570000
C        0.75110000      -0.36530000       1.47050000
C        1.25420000      -0.59290000       2.53770000
N       -1.17730000      -0.71180000       0.09810000
C       -1.76670000      -1.16420000      -1.14520000
C       -0.75380000      -1.81420000      -2.10890000
C       -0.34190000      -2.80380000      -0.97370000
C       -1.37660000      -2.13350000      -0.04810000
H        0.95820000       1.92680000      -0.02470000
H       -0.44570000       1.59690000      -1.06310000
H       -0.67480000       1.85450000       0.67900000
H        0.83540000      -0.47640000      -0.60220000
H        1.69740000      -0.79460000       3.48130000
H       -2.74010000      -0.77210000      -1.42050000
H       -1.25330000      -2.32510000      -2.93480000
H        0.02040000      -1.16370000      -2.52780000
H       -0.60600000      -3.83600000      -1.21190000
H        0.69630000      -2.78170000      -0.63000000
H       -1.99020000      -2.64010000       0.68890000
