14
Properties=species:S:1:pos:R:3 gdb_20412=T pbc="F F F"
C        0.02300000       1.50610000      -0.03240000
C        1.52760000       1.93850000       0.02190000
C        2.15200000       0.75400000       0.69210000
N        3.26800000       0.44390000       1.27660000
O        3.10320000      -0.87940000       1.64940000
N        1.86170000      -1.36920000       1.28040000
C        1.28260000      -0.36690000       0.69450000
C       -0.02140000      -0.05860000       0.02610000
H       -0.49040000       1.90610000       0.84710000
H       -0.48750000       1.90020000      -0.91330000
H        1.94240000       2.06840000      -0.98440000
H        1.67570000       2.87860000       0.55750000
H       -0.89400000      -0.43450000       0.56450000
H       -0.04610000      -0.49530000      -0.97910000
