17
Properties=species:S:1:pos:R:3 gdb_114649=T pbc="F F F"
C        0.09200000       1.30080000       0.10400000
O       -0.17240000      -0.06220000      -0.15040000
C        0.56790000      -0.60060000      -1.21630000
C        2.05230000      -0.98760000      -0.86100000
C        1.92210000      -2.50980000      -1.01620000
O        1.14100000      -2.62130000      -2.25650000
C        0.03380000      -2.01450000      -1.52020000
C        0.57460000      -2.83150000      -0.32140000
O        0.16370000      -3.54760000       0.53240000
H        1.13680000       1.47100000       0.40240000
H       -0.12190000       1.92340000      -0.77790000
H       -0.56190000       1.60750000       0.92310000
H        0.51310000       0.04890000      -2.10030000
H        2.77990000      -0.58290000      -1.56740000
H        2.31780000      -0.67640000       0.15300000
H        2.80040000      -3.15020000      -0.97350000
H       -0.94730000      -2.13680000      -1.97210000
