16
Properties=species:S:1:pos:R:3 gdb_51199=T pbc="F F F"
N       -0.09980000       1.25340000       0.08720000
C       -0.06190000       0.00950000      -0.10490000
O       -1.10780000      -0.76080000       0.28350000
C       -0.95800000      -2.13260000       0.18160000
C       -0.26690000      -3.10800000       1.15680000
C       -0.87610000      -4.02830000       0.07560000
C       -2.12630000      -3.11250000      -0.12160000
O       -1.98950000      -3.03560000      -1.57020000
C       -0.62120000      -3.01260000      -1.08110000
H        0.74490000       1.68820000      -0.27850000
H        0.74320000      -0.56200000      -0.58300000
H        0.82430000      -3.06630000       1.20610000
H       -0.69910000      -3.17880000       2.15760000
H       -0.85300000      -5.11060000      -0.01010000
H       -3.12010000      -3.16790000       0.31930000
H        0.19820000      -2.95650000      -1.79680000
