16
Properties=species:S:1:pos:R:3 gdb_81208=T pbc="F F F"
O       -0.15510000       1.40650000      -0.15530000
C       -0.01120000       0.02530000       0.03820000
C       -0.00980000      -0.56220000       1.46410000
C       -1.54870000      -0.13040000       1.57320000
C       -1.33670000      -0.77850000       0.16110000
N       -1.76840000      -1.67890000      -0.90990000
C       -0.66590000      -2.54490000      -0.62040000
O       -0.17540000      -3.42860000      -1.25290000
C       -0.55950000      -1.90250000       0.82570000
H        0.70430000       1.82170000      -0.03260000
H        0.72740000      -0.41200000      -0.64650000
H        0.74580000      -0.44590000       2.24230000
H       -2.15450000      -0.69480000       2.28300000
H       -1.73830000       0.94130000       1.61250000
H       -2.00580000      -1.39910000      -1.85590000
H       -1.13880000      -2.51230000       1.52210000
