20
Properties=species:S:1:pos:R:3 gdb_22977=T pbc="F F F"
C       -0.15200000       1.61260000       0.16150000
C        0.07640000       0.09400000       0.04010000
C        0.69890000      -0.51180000       1.27760000
N        0.06100000      -0.76880000       2.35590000
O       -1.29630000      -0.41780000       2.26400000
C        2.15990000      -0.85060000       1.25710000
C        3.20310000       0.30350000       1.30870000
O        3.91180000      -0.33990000       2.38020000
C        2.86990000      -1.33000000       2.53950000
H        0.78910000       2.14970000       0.31420000
H       -0.61450000       2.00110000      -0.75080000
H       -0.81230000       1.83160000       1.00310000
H       -0.88610000      -0.39660000      -0.13610000
H        0.71760000      -0.11710000      -0.82220000
H       -1.63350000      -0.69190000       3.12320000
H        2.35770000      -1.51030000       0.40550000
H        3.82980000       0.44470000       0.42060000
H        2.78770000       1.27300000       1.61560000
H        2.28880000      -1.17590000       3.45370000
H        3.26860000      -2.34990000       2.52410000
