17
Properties=species:S:1:pos:R:3 gdb_20217=T pbc="F F F"
C        0.00210000       1.52550000       0.22510000
C        1.29710000       2.21590000      -0.23550000
C        2.44150000       1.24240000      -0.40660000
C        2.54840000      -0.10030000       0.21340000
C        1.20410000      -0.82640000       0.40030000
C        0.05820000       0.03930000      -0.05930000
C        0.97040000      -0.60270000      -1.07380000
N        2.33190000       0.04290000      -1.27300000
H       -0.15040000       1.67100000       1.30110000
H       -0.86350000       1.97190000      -0.27480000
H        1.14410000       2.71230000      -1.20150000
H        1.59380000       2.99980000       0.46910000
H        3.40190000       1.72340000      -0.58550000
H        3.48390000      -0.49760000       0.59570000
H        1.08270000      -1.72260000       0.99380000
H       -0.89530000      -0.47970000       0.00830000
H        0.63000000      -1.27420000      -1.85190000
