21
Properties=species:S:1:pos:R:3 gdb_92376=T pbc="F F F"
O       -0.00610000       1.42030000      -0.15760000
C        0.01390000       0.00850000       0.00890000
C        0.63710000      -0.51480000       1.33900000
C       -0.50980000      -1.35540000       1.95560000
C       -1.58380000      -0.38650000       2.50340000
C       -2.19090000       0.22650000       1.20590000
C       -1.43550000      -0.51680000       0.07310000
O       -2.08800000      -0.52440000      -1.17310000
C       -1.20930000      -1.90670000       0.69270000
H        0.89410000       1.72070000      -0.31200000
H        0.49890000      -0.45780000      -0.86010000
H        1.52390000      -1.12700000       1.14760000
H        0.93680000       0.31850000       1.98240000
H       -0.17110000      -2.09670000       2.68140000
H       -2.34080000      -0.93270000       3.07460000
H       -1.15510000       0.36740000       3.17020000
H       -3.25880000       0.01380000       1.10960000
H       -2.05090000       1.30680000       1.13800000
H       -2.03960000       0.37510000      -1.51690000
H       -0.57250000      -2.54730000       0.07480000
H       -2.14610000      -2.43080000       0.90130000
