19
Properties=species:S:1:pos:R:3 gdb_92066=T pbc="F F F"
C       -0.09060000       1.38410000      -0.16620000
N       -0.01090000      -0.06480000      -0.10840000
C       -1.24480000      -0.75800000       0.23560000
C       -1.19150000      -2.23830000      -0.06940000
C       -0.59340000      -2.74800000      -1.36310000
C        0.16160000      -2.87150000      -0.05300000
N        1.26090000      -2.00250000       0.24990000
C        1.24140000      -0.63220000       0.04620000
O        2.27790000       0.01160000      -0.00270000
H        0.88800000       1.77080000      -0.44390000
H       -0.83660000       1.68480000      -0.91040000
H       -0.37840000       1.81690000       0.80300000
H       -1.48100000      -0.62370000       1.30500000
H       -2.05950000      -0.28130000      -0.32510000
H       -2.01620000      -2.80180000       0.35480000
H       -1.01840000      -3.64440000      -1.80120000
H       -0.23060000      -2.01560000      -2.07590000
H        0.27480000      -3.85700000       0.38610000
H        2.19020000      -2.36960000       0.10520000
