18
Properties=species:S:1:pos:R:3 gdb_17256=T pbc="F F F"
C        0.02150000       1.47140000      -0.01620000
O        1.17580000       0.61600000      -0.00470000
C       -0.11660000       0.01610000      -0.02090000
C       -0.56210000      -0.86910000       1.16080000
C       -1.11810000      -2.05320000       0.34060000
C       -0.02200000      -2.23930000      -0.75140000
C       -0.52630000      -0.83720000      -1.21150000
C       -1.94020000      -1.31730000      -0.76040000
H       -0.15160000       2.03160000       0.90240000
H       -0.12820000       2.03790000      -0.93540000
H        0.29130000      -1.14030000       1.78880000
H       -1.32170000      -0.39430000       1.78920000
H       -1.52590000      -2.89720000       0.89650000
H        1.02030000      -2.32880000      -0.43360000
H       -0.27240000      -3.02590000      -1.46660000
H       -0.32480000      -0.43300000      -2.20300000
H       -2.39290000      -2.00310000      -1.47990000
H       -2.66820000      -0.56270000      -0.44690000
