15
Properties=species:S:1:pos:R:3 gdb_127779=T pbc="F F F"
C        0.00470000       1.42990000      -0.03920000
N        0.00060000      -0.00850000       0.04950000
N       -0.04610000      -0.77160000      -1.09560000
N       -0.04080000      -2.02540000      -0.80280000
C        0.01010000      -2.13660000       0.57010000
C        0.04630000      -3.05510000       1.60840000
N        0.09300000      -2.30370000       2.75240000
C        0.08970000      -0.94030000       2.50970000
C        0.03710000      -0.83360000       1.13500000
H        0.91560000       1.84830000       0.40300000
H       -0.03440000       1.69190000      -1.09710000
H       -0.86520000       1.85760000       0.47120000
H        0.04380000      -4.13080000       1.63900000
H        0.12540000      -2.69970000       3.67690000
H        0.12200000      -0.22740000       3.31420000
