21
Properties=species:S:1:pos:R:3 gdb_107284=T pbc="F F F"
C       -0.23110000       1.51590000       0.18600000
C        0.14010000       0.03590000       0.03230000
C        0.78080000      -0.28940000      -1.28310000
O        1.54810000      -1.50130000      -1.36300000
C        2.18420000      -0.27430000      -1.75340000
C        1.75550000       0.04180000      -3.20430000
C        1.47320000      -1.17420000      -4.13620000
C       -0.01070000      -1.20450000      -3.64850000
C        0.26820000       0.01570000      -2.72170000
H        0.65170000       2.15640000       0.09100000
H       -0.95510000       1.82990000      -0.57240000
H       -0.67860000       1.70170000       1.16670000
H        0.83230000      -0.26880000       0.82520000
H       -0.75850000      -0.58520000       0.15040000
H        3.11230000      -0.03130000      -1.24510000
H        2.19880000       0.94180000      -3.63120000
H        1.58050000      -0.93440000      -5.19670000
H        2.05530000      -2.07020000      -3.91430000
H       -0.73590000      -0.98760000      -4.43640000
H       -0.31040000      -2.11730000      -3.13090000
H       -0.36820000       0.89610000      -2.81200000
