20
Properties=species:S:1:pos:R:3 gdb_80661=T pbc="F F F"
C       -0.04610000       1.44040000       0.02620000
N        0.00720000      -0.00880000       0.01820000
C       -1.23270000      -0.78680000       0.04730000
C       -1.12600000      -1.91380000       1.11130000
C       -0.34660000      -2.69800000       0.01550000
C       -1.18220000      -1.90420000      -1.03090000
C        1.10100000      -2.19520000      -0.02030000
C        1.21210000      -0.66260000      -0.01630000
O        2.29060000      -0.09560000      -0.04210000
H        0.97970000       1.80790000       0.00100000
H       -0.58880000       1.82180000      -0.84760000
H       -0.54220000       1.81370000       0.93060000
H       -2.07940000      -0.10020000       0.07260000
H       -0.61290000      -1.67370000       2.04620000
H       -2.09910000      -2.36380000       1.32240000
H       -0.40170000      -3.78900000       0.01200000
H       -2.16510000      -2.35250000      -1.19480000
H       -0.71880000      -1.65560000      -1.98930000
H        1.67270000      -2.55950000       0.84050000
H        1.62670000      -2.55170000      -0.91320000
