14
Properties=species:S:1:pos:R:3 gdb_65845=T pbc="F F F"
C       -0.08460000       1.58030000      -0.01270000
C        0.05980000       0.06140000      -0.01220000
C        0.87440000      -0.50170000      -1.20780000
O        1.71280000      -1.48390000      -0.61120000
C        1.74970000      -1.31250000       0.73450000
O        2.45710000      -1.89820000       1.48230000
O        0.85080000      -0.35120000       1.11060000
C       -1.26550000      -0.58640000       0.07950000
N       -2.31060000      -1.07580000       0.12110000
H        0.90800000       2.03640000      -0.03160000
H       -0.64810000       1.90450000      -0.89200000
H       -0.61350000       1.91230000       0.88250000
H        0.25280000      -0.97270000      -1.96940000
H        1.49060000       0.28170000      -1.66080000
