20
Properties=species:S:1:pos:R:3 gdb_68854=T pbc="F F F"
C       -0.05060000       1.50280000      -0.02530000
C       -0.00600000      -0.00440000       0.00000000
C        1.30260000      -0.75630000      -0.19120000
C        0.60160000      -0.77760000       1.15030000
O        1.16240000      -0.06050000       2.20870000
C       -0.25370000      -2.00320000       1.48620000
C       -1.36430000      -1.97650000       0.44200000
N       -2.27170000      -0.81570000       0.59190000
C       -1.21200000      -0.78890000      -0.43760000
H        0.80050000       1.92290000       0.51650000
H       -0.03100000       1.88760000      -1.05150000
H       -0.96670000       1.85910000       0.45650000
H        1.31770000      -1.65420000      -0.80290000
H        2.20050000      -0.14940000      -0.24880000
H        1.96820000      -0.51160000       2.48180000
H        0.31760000      -2.93870000       1.43880000
H       -0.65780000      -1.89940000       2.49800000
H       -1.77540000      -2.90810000       0.06660000
H       -3.16220000      -1.03350000       0.14980000
H       -1.49310000      -0.81350000      -1.48760000
