15
Properties=species:S:1:pos:R:3 gdb_15503=T pbc="F F F"
N        0.09260000       1.34710000      -0.07710000
C        0.00550000       0.08980000      -0.15190000
O        1.04900000      -0.77680000      -0.23640000
C        0.58780000      -2.14310000      -0.19210000
C       -0.90180000      -2.09780000      -0.56410000
C       -1.30390000      -0.68750000      -0.12760000
C       -1.88660000      -0.61510000       1.28330000
O       -2.10310000      -1.57510000       1.97490000
H        1.06960000       1.64480000      -0.07620000
H        1.20050000      -2.72070000      -0.88690000
H        0.74110000      -2.52790000       0.82200000
H       -1.03640000      -2.21930000      -1.64140000
H       -1.47640000      -2.86430000      -0.04220000
H       -2.01770000      -0.19070000      -0.79180000
H       -2.08800000       0.41940000       1.62860000
