17
Properties=species:S:1:pos:R:3 gdb_20278=T pbc="F F F"
C        0.01710000       1.49180000      -0.02250000
C        1.29040000       0.72480000       0.01880000
C        1.83970000       0.32180000       1.37670000
C        1.40400000      -1.18140000       1.59100000
C        1.24170000      -0.90750000       3.09910000
C        0.67120000       0.35260000       2.41260000
C       -0.00800000      -0.56870000       1.33570000
N       -0.01060000       0.01690000      -0.01920000
H       -0.30850000       2.02710000       0.86430000
H       -0.30300000       1.93840000      -0.95980000
H        1.92400000       0.65270000      -0.86100000
H        2.83770000       0.64530000       1.67450000
H        1.82780000      -2.05860000       1.10010000
H        0.53060000      -1.53690000       3.64190000
H        2.16090000      -0.77330000       3.67530000
H        0.25130000       1.23180000       2.90260000
H       -0.91070000      -1.12900000       1.58110000
