15
Properties=species:S:1:pos:R:3 gdb_132278=T pbc="F F F"
C       -0.01970000       1.49720000      -0.00900000
C        0.00180000      -0.00780000      -0.00620000
N       -0.01960000      -0.61370000      -1.16210000
C       -0.00130000      -1.99980000      -1.22400000
N       -0.01870000      -2.72310000      -2.27480000
N        0.04080000      -2.68550000       0.01710000
C        0.06200000      -2.03720000       1.19130000
F        0.10070000      -2.82190000       2.25080000
C        0.04440000      -0.68470000       1.25970000
H        0.86910000       1.89430000       0.49430000
H       -0.05220000       1.86750000      -1.03340000
H       -0.89150000       1.86920000       0.54110000
H       -0.04890000      -2.10980000      -3.08740000
H        0.05430000      -3.69500000      -0.01500000
H        0.06150000      -0.16760000       2.20650000
