16
Properties=species:S:1:pos:R:3 gdb_29026=T pbc="F F F"
C       -0.02480000       1.54520000       0.19580000
C       -0.02790000       0.04650000       0.10700000
C       -1.19370000      -0.63260000      -0.08770000
C       -1.43970000      -2.03140000      -0.20280000
C       -0.55570000      -3.06660000      -0.14670000
N        0.79830000      -3.06060000       0.03320000
C        1.54990000      -2.02570000       0.19390000
C        1.31090000      -0.55790000       0.24880000
O        2.29210000       0.15910000       0.42110000
H        0.63130000       1.96870000      -0.57220000
H       -1.02870000       1.96050000       0.08730000
H        0.40290000       1.86700000       1.15150000
H       -2.08720000      -0.01700000      -0.16980000
H       -2.47920000      -2.30950000      -0.35700000
H       -0.96150000      -4.06950000      -0.25970000
H        2.61650000      -2.22630000       0.32350000
