15
Properties=species:S:1:pos:R:3 gdb_4867=T pbc="F F F"
N        0.23550000       1.27870000      -0.03700000
C       -0.03200000      -0.08260000      -0.02800000
C       -1.17350000      -0.81710000       0.10480000
C       -0.74660000      -2.18780000       0.13170000
C        0.60430000      -2.19600000       0.01850000
C        1.64990000      -3.24640000      -0.05490000
O        2.22820000      -3.40230000      -1.35170000
O        1.05520000      -0.88690000      -0.07810000
H        1.05280000       1.51420000      -0.58560000
H       -0.56010000       1.83150000      -0.32430000
H       -2.17980000      -0.43720000       0.17530000
H       -1.37610000      -3.06020000       0.21910000
H        2.43580000      -3.04970000       0.69150000
H        1.19370000      -4.20870000       0.19190000
H        2.57620000      -2.54220000      -1.60840000
