20
Properties=species:S:1:pos:R:3 gdb_104770=T pbc="F F F"
C       -0.55870000       0.50220000      -0.82110000
C        0.09820000      -0.76690000      -0.26130000
C        0.50840000      -0.63340000       1.19830000
C        1.48850000       0.49940000       1.52100000
O        0.83290000       1.68250000       1.95930000
N       -0.54420000      -0.86770000       2.18080000
C        0.56880000      -1.83310000       2.11700000
C        0.21680000      -3.21290000       1.67640000
O        0.91490000      -4.17410000       1.88380000
H        0.13830000       1.34850000      -0.84960000
H       -0.89980000       0.34240000      -1.84800000
H       -1.42930000       0.78510000      -0.22040000
H       -0.60320000      -1.59900000      -0.36180000
H        0.98270000      -1.02290000      -0.85820000
H        2.14150000       0.21530000       2.35090000
H        2.13090000       0.69370000       0.64990000
H        0.28720000       2.01070000       1.23770000
H       -0.43010000      -0.23300000       2.96850000
H        1.34300000      -1.81300000       2.88080000
H       -0.75670000      -3.29580000       1.14670000
