16
Properties=species:S:1:pos:R:3 gdb_17986=T pbc="F F F"
N        0.13010000      -1.14290000       0.35530000
C        0.05530000      -0.00090000       0.18780000
C       -0.02680000       1.44110000      -0.00460000
C       -0.46400000       2.29610000       1.22910000
C        0.86860000       3.05960000       1.06450000
C        2.07670000       2.56440000       1.88750000
C        2.40840000       1.63600000       0.68680000
N        1.27260000       2.19690000      -0.12330000
H       -0.64030000       1.62780000      -0.89160000
H       -1.36980000       2.88030000       1.06080000
H       -0.56790000       1.73960000       2.16270000
H        0.79080000       4.13510000       0.88780000
H        2.82820000       3.33070000       2.08710000
H        1.82940000       2.06530000       2.82790000
H        3.36530000       1.83740000       0.19880000
H        2.33920000       0.56140000       0.87670000
