18
Properties=species:S:1:pos:R:3 gdb_97627=T pbc="F F F"
C       -0.51910000       1.38870000       0.15270000
C        0.42900000       0.21700000      -0.16070000
C        1.03950000      -0.36300000       1.02940000
C        1.53200000      -0.83720000       2.01900000
C        2.14160000      -1.38780000       3.22490000
O        1.56540000      -2.64190000       3.52240000
C        1.93770000      -3.14720000       4.79530000
C        3.61790000      -1.49900000       3.05990000
N        4.76490000      -1.60120000       2.96790000
H        0.01530000       2.19750000       0.65800000
H       -0.94860000       1.78440000      -0.77190000
H       -1.33650000       1.06470000       0.80220000
H       -0.11650000      -0.56960000      -0.69690000
H        1.22250000       0.55130000      -0.84070000
H        1.97720000      -0.69080000       4.06620000
H        3.01760000      -3.33490000       4.85930000
H        1.64820000      -2.45550000       5.60040000
H        1.40130000      -4.08890000       4.92140000
