13
Properties=species:S:1:pos:R:3 gdb_67148=T pbc="F F F"
O       -0.26490000       1.37230000       0.05550000
C        0.02300000       0.04830000       0.00650000
C        0.09430000      -1.05550000      -1.00360000
O        1.24440000      -1.67390000      -0.42610000
C        0.94030000      -0.96210000       0.80290000
C       -0.39830000      -1.59990000       1.27620000
O       -0.82170000      -1.98620000       2.33030000
C       -1.04480000      -1.14820000       0.00710000
O       -2.34410000      -1.15120000      -0.38720000
H        0.46470000       1.86900000      -0.33620000
H       -0.07750000      -1.10430000      -2.07170000
H        1.78210000      -0.77560000       1.46290000
H       -2.89310000      -0.93120000       0.37620000
