18
Properties=species:S:1:pos:R:3 gdb_88399=T pbc="F F F"
C        0.24200000       1.57960000      -0.34210000
C        0.04480000       0.10820000      -0.04130000
C        1.20290000      -0.85870000      -0.08250000
C        0.52790000      -0.55160000       1.23260000
C        1.25570000       0.23800000       2.32370000
C        0.20500000       0.91040000       3.22510000
O       -0.09960000       2.06590000       3.12640000
C        2.11690000      -0.63650000       3.12230000
N        2.76890000      -1.32930000       3.77850000
H        1.24780000       1.92260000      -0.08260000
H        0.10680000       1.76440000      -1.41270000
H       -0.47170000       2.20300000       0.20470000
H       -0.90310000      -0.28510000      -0.39930000
H        1.06540000      -1.84610000      -0.50800000
H        2.19160000      -0.44020000      -0.24370000
H       -0.10680000      -1.33480000       1.63760000
H        1.86090000       1.03490000       1.88400000
H       -0.28420000       0.22670000       3.95130000
