20
Properties=species:S:1:pos:R:3 gdb_102986=T pbc="F F F"
C        1.10150000       1.27580000      -1.06580000
C        0.63430000      -0.04460000      -0.48860000
N        1.43720000      -0.89420000       0.38080000
C        2.77420000      -0.50700000       0.81150000
C        0.25480000      -0.23260000       0.96290000
C        0.37980000       0.89960000       1.97810000
O        0.67040000       0.41200000       3.27550000
C       -0.82740000      -1.13160000       1.30540000
C       -1.74120000      -1.83890000       1.64220000
H        1.64500000       1.90270000      -0.35780000
H        1.75840000       1.09560000      -1.92380000
H        0.24020000       1.84750000      -1.42600000
H        0.04630000      -0.62560000      -1.19900000
H        2.97200000       0.57250000       0.85390000
H        2.94870000      -0.91830000       1.80890000
H        3.49740000      -0.95250000       0.12110000
H        1.19560000       1.57630000       1.72270000
H       -0.55320000       1.48390000       1.96570000
H       -0.00260000      -0.24660000       3.48680000
H       -2.54270000      -2.48200000       1.91070000
