15
Properties=species:S:1:pos:R:3 gdb_53922=T pbc="F F F"
C        0.25070000       1.56850000       0.30390000
C        0.05980000       0.05150000       0.05550000
C        0.61620000      -0.73640000       1.15950000
C        1.09540000      -1.36910000       2.05990000
C       -1.37250000      -0.25920000      -0.08900000
N       -2.48930000      -0.51320000      -0.24660000
C        0.85680000      -0.34500000      -1.25270000
N        0.29330000      -1.31890000      -2.00120000
O        1.91180000       0.19150000      -1.49910000
H        1.31990000       1.77790000       0.31210000
H       -0.21940000       2.14190000      -0.49830000
H       -0.19490000       1.84990000       1.25910000
H        1.51620000      -1.93140000       2.85710000
H       -0.62030000      -1.69160000      -1.80450000
H        0.77400000      -1.60980000      -2.83690000
