16
Properties=species:S:1:pos:R:3 gdb_45625=T pbc="F F F"
O       -0.58090000       0.31310000      -1.05120000
C       -0.22490000       1.26950000      -0.41240000
C       -0.87980000       1.97740000       0.78230000
N        0.00530000       3.08140000       1.14920000
C        0.98880000       3.04690000       0.32670000
N        0.93490000       2.01880000      -0.61030000
C        2.11260000       4.00740000       0.33950000
C        1.78230000       5.46740000       0.32320000
N        2.28560000       4.83480000       1.53830000
H       -1.87780000       2.33820000       0.50820000
H       -1.01180000       1.27860000       1.61580000
H        1.60710000       1.83090000      -1.33660000
H        3.03310000       3.66490000      -0.12650000
H        2.46700000       6.15760000      -0.16160000
H        0.72930000       5.72730000       0.26700000
H        1.50180000       4.62930000       2.15860000
