17
Properties=species:S:1:pos:R:3 gdb_2240=T pbc="F F F"
C       -0.24740000       1.53520000       0.05350000
C        0.07320000       0.06200000      -0.00600000
C       -0.70250000      -0.93220000       0.84990000
C        0.76790000      -0.68950000       1.09480000
O        1.69910000      -1.60170000       0.57490000
C        1.39860000      -1.78880000      -0.80900000
C        0.67810000      -0.50860000      -1.28500000
H        0.62190000       2.14190000      -0.22650000
H       -1.06690000       1.79490000      -0.62730000
H       -0.55340000       1.83450000       1.06120000
H       -1.39860000      -0.51570000       1.57100000
H       -1.01780000      -1.88000000       0.42590000
H        1.11510000      -0.23390000       2.01520000
H        2.33820000      -1.98240000      -1.33360000
H        0.75480000      -2.66990000      -0.93920000
H       -0.05870000      -0.72460000      -2.06540000
H        1.39340000       0.21480000      -1.69340000
