20
Properties=species:S:1:pos:R:3 gdb_61796=T pbc="F F F"
C        0.00470000       1.95470000      -0.38570000
C       -0.09460000       0.49450000       0.05750000
N       -1.49790000       0.13350000       0.23670000
C       -1.89100000      -0.89480000       1.03140000
O       -1.13410000      -1.60680000       1.66000000
C        0.62900000      -0.50380000      -0.89600000
C        0.14050000      -0.48370000      -2.34310000
C        2.12650000      -0.30120000      -0.78910000
O        2.87030000      -0.12390000      -1.72040000
H        1.04960000       2.24610000      -0.52360000
H       -0.51040000       2.12340000      -1.33740000
H       -0.43830000       2.61480000       0.36530000
H        0.37250000       0.38520000       1.04290000
H       -2.19990000       0.64490000      -0.27440000
H       -2.99240000      -1.01340000       1.05000000
H        0.44310000      -1.49130000      -0.44800000
H       -0.94370000      -0.62140000      -2.38800000
H        0.39890000       0.45400000      -2.84180000
H        0.60990000      -1.28800000      -2.91430000
H        2.51810000      -0.33280000       0.25490000
