15
Properties=species:S:1:pos:R:3 gdb_131493=T pbc="F F F"
O        0.03890000       1.41510000       0.52420000
C        0.04850000       0.08030000       0.11450000
C       -0.48470000      -0.97780000       1.03580000
C       -1.29110000      -0.54600000      -0.18650000
C       -2.55020000       0.20140000      -0.04010000
N       -3.59910000      -0.10470000      -0.76290000
O       -4.58850000       0.75870000      -0.38160000
N       -4.15340000       1.61420000       0.58950000
C       -2.91130000       1.29120000       0.81030000
H        0.76590000       1.54250000       1.14300000
H        0.86400000      -0.18640000      -0.55660000
H       -0.04370000      -1.96810000       1.02870000
H       -0.85020000      -0.64310000       2.00060000
H       -1.31510000      -1.24310000      -1.01590000
H       -2.30740000       1.82500000       1.52360000
