18
Properties=species:S:1:pos:R:3 gdb_40649=T pbc="F F F"
C        0.37220000       1.76000000       0.19960000
C        0.91430000       0.49770000      -0.37740000
N       -0.41710000       0.53210000       0.22140000
C       -0.57360000      -0.11380000       1.48650000
C       -1.92970000      -0.13740000       2.18080000
O       -3.07360000       0.17670000       1.43650000
C       -3.09910000      -0.67570000       0.30010000
O       -2.22370000      -1.76690000       0.54860000
C       -1.37650000      -1.40300000       1.60210000
H        0.80220000       2.10380000       1.13860000
H       -0.00140000       2.54900000      -0.44640000
H        0.94360000       0.34770000      -1.45260000
H        1.70680000      -0.00330000       0.17560000
H        0.27250000      -0.06350000       2.18270000
H       -2.03810000       0.09320000       3.23340000
H       -4.11820000      -1.05670000       0.15890000
H       -2.75620000      -0.12270000      -0.58150000
H       -1.01040000      -2.25640000       2.15960000
