19
Properties=species:S:1:pos:R:3 gdb_4033=T pbc="F F F"
C       -0.82730000       0.93040000       0.06330000
C        0.14230000      -0.25260000      -0.12740000
C        1.15360000       0.02600000      -1.25180000
O        0.51450000       0.19860000      -2.51070000
C        0.80180000      -0.61930000       1.18450000
C       -0.02590000      -1.23790000       2.28130000
N        2.05160000      -0.37700000       1.29890000
O        2.53990000      -0.74850000       2.56370000
H       -0.28000000       1.83640000       0.34710000
H       -1.37460000       1.12600000      -0.86380000
H       -1.56790000       0.72890000       0.84240000
H       -0.45460000      -1.12010000      -0.44450000
H        1.77880000       0.89060000      -0.99410000
H        1.82320000      -0.83080000      -1.36200000
H        0.16590000       1.09330000      -2.54920000
H       -0.04980000      -0.58800000       3.16240000
H       -1.04970000      -1.42600000       1.95270000
H        0.42550000      -2.18070000       2.60550000
H        3.47450000      -0.52830000       2.49120000
