16
Properties=species:S:1:pos:R:3 gdb_32356=T pbc="F F F"
C        0.07540000       1.39890000       0.00680000
O        0.01120000      -0.01440000       0.00290000
C       -1.22880000      -0.57220000       0.01070000
C       -2.40410000       0.08950000       0.02190000
O       -3.60440000      -0.55950000       0.02920000
C       -3.69840000      -1.94540000       0.02540000
N       -4.83240000      -2.52220000       0.03230000
C       -2.43700000      -2.66420000       0.01330000
C       -1.25880000      -2.01400000       0.00630000
H        1.13410000       1.66070000      -0.00060000
H       -0.41180000       1.82250000      -0.88180000
H       -0.39790000       1.81690000       0.90570000
H       -2.53370000       1.16130000       0.02640000
H       -5.58530000      -1.83350000       0.04040000
H       -2.50810000      -3.74390000       0.01040000
H       -0.31060000      -2.54020000      -0.00280000
