18
Properties=species:S:1:pos:R:3 gdb_46065=T pbc="F F F"
O        0.35490000       0.35740000      -0.81380000
C        0.16670000       1.36580000      -0.18950000
C       -1.13690000       2.16600000      -0.13420000
O       -0.92790000       3.21760000       0.78690000
C        0.48310000       3.47030000       0.93030000
C        1.16270000       2.11290000       0.69820000
C        0.95020000       4.54490000      -0.02780000
C        0.84060000       5.97050000       0.35340000
N        2.16290000       5.32030000       0.28130000
H       -1.37820000       2.53300000      -1.14420000
H       -1.96950000       1.53990000       0.20390000
H        0.62230000       3.83220000       1.95570000
H        1.26400000       1.55270000       1.63460000
H        2.14690000       2.16900000       0.22920000
H        0.86570000       4.28330000      -1.08230000
H        0.66110000       6.72560000      -0.40580000
H        0.42330000       6.20150000       1.33050000
H        2.48680000       5.09770000       1.22110000
