18
Properties=species:S:1:pos:R:3 gdb_48954=T pbc="F F F"
O       -0.73320000       0.95180000      -0.66880000
C        0.06530000       1.11070000       0.22140000
C        1.33800000       1.88390000       0.08990000
C        2.65740000       1.43950000       0.73550000
C        2.95700000       2.94690000       0.62510000
C        3.08230000       3.13530000      -0.90570000
C        1.60240000       2.79530000      -1.17510000
C        0.93140000       3.90700000      -0.34700000
N        1.44860000       3.21060000       0.88280000
H       -0.10410000       0.68430000       1.23570000
H        2.48640000       1.11950000       1.76570000
H        3.30520000       0.73660000       0.20780000
H        3.65620000       3.45700000       1.28560000
H        3.34100000       4.14950000      -1.22070000
H        3.79950000       2.43910000      -1.34790000
H        1.28730000       2.51840000      -2.17940000
H        1.26750000       4.93930000      -0.48620000
H       -0.16020000       3.86670000      -0.33790000
