21
Properties=species:S:1:pos:R:3 gdb_83737=T pbc="F F F"
C       -0.01100000       1.52740000      -0.03740000
C       -0.02080000       0.01880000      -0.08490000
C        0.69040000      -0.73960000      -1.15200000
N        1.25250000      -0.64940000       0.21410000
C        1.10280000      -1.99200000       0.81980000
C        0.12790000      -2.81750000      -0.05730000
C        0.25910000      -2.15440000      -1.42460000
C       -0.49620000      -2.54370000      -2.63690000
N        0.92240000      -2.92640000      -2.49090000
H        0.92690000       1.91760000      -0.44160000
H       -0.84150000       1.94340000      -0.61810000
H       -0.10600000       1.88450000       0.99380000
H       -0.92650000      -0.44200000       0.30920000
H        1.21370000      -0.20240000      -1.94180000
H        2.09520000      -2.45420000       0.82370000
H        0.77440000      -1.89850000       1.85940000
H        0.39590000      -3.87420000      -0.10720000
H       -0.90100000      -2.75040000       0.31040000
H       -1.19890000      -3.37230000      -2.60040000
H       -0.75800000      -1.76460000      -3.34930000
H        1.50580000      -2.31370000      -3.05760000
