19
Properties=species:S:1:pos:R:3 gdb_22380=T pbc="F F F"
C       -0.10840000       1.52620000       0.01520000
N        0.10910000       0.08750000       0.11030000
C        1.39790000      -0.52900000      -0.18540000
C        2.52710000       0.28390000       0.36520000
C        1.94570000       0.30450000       1.77300000
C        0.77830000      -0.55680000       1.21500000
C        0.10080000      -1.66880000       1.95810000
N        3.61330000       0.64130000      -0.18030000
O        4.43470000       1.32900000       0.73500000
H        0.74090000       2.14810000       0.32710000
H       -0.34080000       1.77040000      -1.02540000
H       -0.97680000       1.78960000       0.62700000
H        1.45770000      -1.28200000      -0.96290000
H        2.58800000      -0.24010000       2.47150000
H        1.69260000       1.27310000       2.21240000
H       -0.52160000      -1.27280000       2.76960000
H       -0.54620000      -2.23460000       1.28330000
H        0.83360000      -2.34980000       2.40340000
H        5.21330000       1.52080000       0.20140000
