17
Properties=species:S:1:pos:R:3 gdb_42530=T pbc="F F F"
O        0.00740000       0.17400000      -0.59650000
C       -0.00170000       1.33980000      -0.30090000
C       -1.08050000       2.36850000      -0.04810000
C       -2.38950000       2.42240000      -0.75410000
N       -2.32950000       2.14050000       0.68020000
C       -0.01800000       3.45100000       0.23440000
C        1.06110000       2.38030000      -0.02910000
C        2.37190000       2.11040000       0.62200000
N        2.31050000       2.54510000      -0.77350000
H       -2.80030000       3.39430000      -1.01340000
H       -2.61880000       1.61490000      -1.44490000
H       -2.44000000       1.14070000       0.84520000
H       -0.00810000       4.27950000      -0.47690000
H       -0.03740000       3.84010000       1.25460000
H        2.76950000       2.84720000       1.31450000
H        2.61550000       1.07470000       0.84540000
H        2.43490000       1.74640000      -1.39450000
