20
Properties=species:S:1:pos:R:3 gdb_94812=T pbc="F F F"
C       -0.27250000       1.40320000      -0.04320000
C        0.06720000      -0.06530000       0.14470000
O        0.68470000      -0.55310000      -1.05630000
C        1.69580000      -1.50380000      -0.73840000
C        1.60830000      -1.70980000       0.76730000
C        1.24270000      -3.02200000       1.35520000
N        2.59220000      -2.45150000       1.54120000
C        1.05890000      -0.39320000       1.28010000
O        2.14390000       0.51660000       1.35740000
H        0.63730000       1.98600000      -0.21030000
H       -0.91920000       1.52940000      -0.91520000
H       -0.80210000       1.79700000       0.83160000
H       -0.85790000      -0.63610000       0.33250000
H        1.52910000      -2.43130000      -1.30120000
H        2.67830000      -1.09760000      -1.01870000
H        0.64520000      -3.07470000       2.26180000
H        1.11270000      -3.86110000       0.67610000
H        3.26000000      -2.90520000       0.92150000
H        0.55210000      -0.49690000       2.24860000
H        1.80500000       1.36600000       1.65650000
