19
Properties=species:S:1:pos:R:3 gdb_69431=T pbc="F F F"
C        0.08660000       1.51850000       0.20540000
C        0.11240000       0.01730000       0.06090000
C       -0.94140000      -0.84580000       0.71410000
C        0.48860000      -0.91630000       1.19260000
C        1.33810000      -2.03160000       0.58960000
N        0.98130000      -1.98320000      -0.83290000
C        0.74300000      -0.57690000      -1.19220000
C        2.77480000      -1.77900000       0.84620000
N        3.90570000      -1.59320000       1.00210000
H        1.09080000       1.94500000       0.10330000
H       -0.55200000       1.98000000      -0.55670000
H       -0.30460000       1.81270000       1.18400000
H       -1.64330000      -0.34630000       1.37360000
H       -1.34790000      -1.68860000       0.16610000
H        0.75350000      -0.55010000       2.17660000
H        1.09780000      -3.02100000       0.99780000
H        1.66450000      -2.43900000      -1.42470000
H        0.09030000      -0.53030000      -2.07180000
H        1.66560000      -0.01920000      -1.42410000
