21
Properties=species:S:1:pos:R:3 gdb_76491=T pbc="F F F"
C       -0.88480000       1.13720000      -0.15090000
C        0.11620000       0.00500000       0.01660000
C        1.42640000       0.05150000      -0.83310000
C        2.20560000      -0.29600000       0.43740000
C        0.98190000      -0.02160000       1.31660000
C        3.16470000      -1.45990000       0.53900000
O        3.55400000      -2.13360000      -0.61890000
C        3.65450000      -0.03970000       0.72420000
O        4.39220000       0.49580000      -0.35030000
H       -0.40140000       2.11170000      -0.01520000
H       -1.33460000       1.12540000      -1.15020000
H       -1.69710000       1.06350000       0.58120000
H       -0.38480000      -0.95850000      -0.12060000
H        1.51160000      -0.66670000      -1.65250000
H        1.65040000       1.05320000      -1.21370000
H        1.02290000       0.95810000       1.80670000
H        0.73040000      -0.77670000       2.06740000
H        3.10340000      -2.12670000       1.39520000
H        3.99590000      -1.47350000      -1.17140000
H        3.94140000       0.32250000       1.71100000
H        5.32470000       0.31460000      -0.18520000
