15
Properties=species:S:1:pos:R:3 gdb_34213=T pbc="F F F"
C        0.06350000      -1.15910000      -0.05170000
C       -0.00260000       0.04140000       0.00690000
C       -0.06930000       1.45820000       0.06670000
C       -1.06700000       2.26290000       0.89930000
C       -0.51700000       3.62960000       0.44590000
O        0.87110000       3.54360000       0.75720000
C        1.16840000       2.38290000       0.01600000
C        0.20850000       2.38640000      -1.13780000
O       -0.57100000       3.54890000      -0.97600000
H        0.11710000      -2.21830000      -0.09960000
H       -2.10250000       2.10880000       0.59180000
H       -0.95340000       2.10460000       1.97290000
H       -0.95070000       4.55620000       0.80950000
H        2.19780000       2.05890000       0.02590000
H        0.38490000       2.06550000      -2.15300000
