19
Properties=species:S:1:pos:R:3 gdb_108183=T pbc="F F F"
C       -0.06680000       1.37770000      -0.04690000
O       -0.03850000      -0.04300000      -0.08930000
C        0.68670000      -0.58780000      -1.11670000
C        0.59770000      -2.11240000      -1.25040000
C        1.46810000      -2.09410000      -2.53210000
C        0.60840000      -1.09680000      -3.37280000
O        0.14180000      -0.15090000      -2.41010000
C        2.66090000      -1.28540000      -2.04470000
C        2.19720000      -0.35960000      -1.19930000
H        0.93370000       1.80080000       0.11480000
H       -0.48540000       1.79180000      -0.96900000
H       -0.70250000       1.64700000       0.79870000
H        1.06480000      -2.64400000      -0.42130000
H       -0.43150000      -2.44770000      -1.40110000
H        1.67730000      -3.04250000      -3.02470000
H        1.19200000      -0.59220000      -4.15180000
H       -0.24770000      -1.60070000      -3.83930000
H        3.67160000      -1.39030000      -2.41930000
H        2.73790000       0.45440000      -0.73590000
