21
Properties=species:S:1:pos:R:3 gdb_101282=T pbc="F F F"
C       -0.17600000       1.68610000       0.17540000
C       -0.04760000       0.16330000       0.11360000
N       -1.33340000      -0.50620000      -0.09820000
C       -1.84740000      -0.31860000      -1.45080000
C       -1.41840000      -1.88050000       0.30350000
C       -0.26870000      -2.81620000       0.56820000
C       -1.17980000      -2.39290000       1.72510000
C       -0.67980000      -1.56080000       2.77950000
N       -0.29100000      -0.89760000       3.64540000
H        0.79400000       2.12760000       0.42330000
H       -0.49850000       2.12010000      -0.77520000
H       -0.89450000       1.97340000       0.94780000
H        0.68080000      -0.12160000      -0.66900000
H        0.36420000      -0.17060000       1.06740000
H       -1.20580000      -0.77210000      -2.22860000
H       -2.84690000      -0.75550000      -1.53330000
H       -1.93830000       0.74730000      -1.66910000
H       -2.28960000      -2.35210000      -0.13970000
H       -0.32720000      -3.84930000       0.24370000
H        0.73280000      -2.40380000       0.57900000
H       -1.89600000      -3.12930000       2.07530000
