24
Properties=species:S:1:pos:R:3 gdb_5894=T pbc="F F F"
C        0.14440000       1.38020000       0.00790000
O        0.05670000      -0.02240000       0.00140000
C       -1.27760000      -0.49050000       0.01150000
C       -1.23210000      -2.01510000       0.00300000
C       -2.59200000      -2.75450000       0.01200000
C       -3.42240000      -2.40270000      -1.23720000
C       -2.30090000      -4.26720000       0.00100000
C       -3.39820000      -2.41640000       1.28070000
H        1.20520000       1.64370000      -0.00070000
H       -0.33870000       1.82690000      -0.87650000
H       -0.32190000       1.81750000       0.90590000
H       -1.80140000      -0.11150000       0.90470000
H       -1.81810000      -0.10210000      -0.86770000
H       -0.66210000      -2.32470000      -0.88180000
H       -0.64530000      -2.33400000       0.87340000
H       -2.86150000      -2.60950000      -2.15560000
H       -4.34190000      -2.99750000      -1.26870000
H       -3.71590000      -1.34830000      -1.25440000
H       -1.71690000      -4.56480000       0.87870000
H       -3.23170000      -4.84510000       0.00680000
H       -1.73390000      -4.55510000      -0.89110000
H       -3.69130000      -1.36240000       1.31500000
H       -4.31700000      -3.01160000       1.32350000
H       -2.81970000      -2.63320000       2.18580000
