18
Properties=species:S:1:pos:R:3 gdb_80365=T pbc="F F F"
C       -0.08120000       1.52590000      -0.11210000
C        0.08270000       0.02790000       0.04410000
C        1.33700000      -0.76210000      -0.19970000
C        2.57870000      -0.01800000       0.31010000
C        1.96980000      -0.04350000       1.75990000
O        2.60840000      -0.97740000       2.60990000
C        1.83620000       1.24680000       2.45970000
N        1.77430000       2.25800000       3.01720000
C        0.70780000      -0.70870000       1.20140000
H        0.80230000       2.09050000       0.19170000
H       -0.29040000       1.77290000      -1.15840000
H       -0.91880000       1.88870000       0.49210000
H       -0.79230000      -0.52150000      -0.30080000
H        1.36970000      -1.59820000      -0.88680000
H        3.48190000      -0.63020000       0.30190000
H        2.79240000       0.95840000      -0.13230000
H        3.44900000      -0.60200000       2.89780000
H        0.18910000      -1.47440000       1.76470000
