14
Properties=species:S:1:pos:R:3 gdb_129528=T pbc="F F F"
N       -0.14760000       1.32930000      -0.01950000
C        0.12960000       0.00420000      -0.03200000
O        1.23340000      -0.48770000       0.00950000
O       -1.04610000      -0.69280000      -0.11820000
C       -1.05630000      -2.05850000      -0.17370000
C       -2.17250000      -2.86060000      -0.25730000
C       -1.63410000      -4.16490000      -0.28570000
N       -0.30650000      -4.16920000      -0.22500000
N        0.03140000      -2.86190000      -0.15670000
H        0.61320000       1.96450000       0.14260000
H       -1.09530000       1.65470000       0.04980000
H       -3.20040000      -2.54270000      -0.29220000
H       -2.16810000      -5.10170000      -0.34820000
H        0.98750000      -2.55220000      -0.09880000
