15
Properties=species:S:1:pos:R:3 gdb_130146=T pbc="F F F"
N       -0.38740000       1.31090000       0.52900000
C       -0.00970000       0.03590000       0.11530000
N       -0.83980000      -0.72450000      -0.59420000
N       -0.17870000      -1.90120000      -0.72960000
C        1.04270000      -1.89050000      -0.15260000
C        1.95900000      -3.08490000      -0.15140000
C        1.55470000      -4.10290000      -1.12090000
N        1.19830000      -4.89330000      -1.88450000
C        1.19770000      -0.64380000       0.41890000
H        0.36580000       1.98430000       0.50090000
H       -1.18850000       1.64870000       0.01110000
H       -0.59290000      -2.64290000      -1.26980000
H        2.98440000      -2.77220000      -0.37780000
H        1.99030000      -3.55260000       0.84120000
H        2.04250000      -0.28310000       0.98330000
