17
Properties=species:S:1:pos:R:3 gdb_14707=T pbc="F F F"
C        0.29730000       1.34540000       0.07720000
C       -0.14280000      -0.05480000      -0.36070000
C        0.66280000      -0.54380000      -1.56940000
N        0.37310000      -1.85770000      -2.12500000
C       -0.50870000      -2.59430000      -1.62410000
O       -0.81500000      -3.84100000      -2.11610000
C        0.09070000      -4.48440000      -2.92360000
O       -0.19540000      -5.50430000      -3.46740000
H        1.35590000       1.35850000       0.35840000
H        0.15920000       2.07450000      -0.72850000
H       -0.28030000       1.68960000       0.93980000
H       -0.02140000      -0.75510000       0.47560000
H       -1.21210000      -0.04180000      -0.60730000
H        0.55550000       0.17380000      -2.39400000
H        1.73290000      -0.53610000      -1.32140000
H       -1.16410000      -2.38220000      -0.77840000
H        1.05490000      -3.96280000      -2.97220000
