19
Properties=species:S:1:pos:R:3 gdb_72916=T pbc="F F F"
O        0.26240000       1.30400000      -0.34930000
C        0.07690000      -0.04480000       0.00400000
C        0.18120000      -0.94460000      -1.23960000
O       -1.14550000      -1.47130000      -1.03570000
C       -1.37970000      -0.60660000       0.10870000
C       -1.52680000      -1.31360000       1.43970000
C       -0.70490000      -2.56530000       1.62050000
C       -0.17460000      -1.26220000       2.14620000
C        0.81410000      -0.46550000       1.30060000
H        0.10250000       1.84820000       0.42930000
H        0.26030000      -0.36790000      -2.16800000
H        0.94730000      -1.72940000      -1.22300000
H       -2.18560000       0.10660000      -0.09350000
H       -2.45490000      -1.20890000       1.98910000
H       -1.05750000      -3.28760000       2.34830000
H       -0.26830000      -3.00490000       0.73060000
H       -0.12800000      -1.13700000       3.22250000
H        1.73260000      -1.02140000       1.08180000
H        1.12090000       0.43940000       1.83860000
