24
Properties=species:S:1:pos:R:3 gdb_121470=T pbc="F F F"
C       -0.06860000       1.52000000      -0.10160000
C       -0.19590000       0.10190000       0.42330000
O       -1.25540000      -0.53680000      -0.29220000
C       -1.50810000      -1.81970000       0.05180000
N       -2.42320000      -2.45540000      -0.52790000
C       -2.73380000      -3.84800000      -0.18890000
C       -1.86770000      -4.47530000       0.91920000
C       -4.21300000      -3.86750000       0.24210000
C       -2.56760000      -4.65620000      -1.49030000
H        0.73520000       2.04490000       0.42290000
H        0.15770000       1.51450000      -1.17120000
H       -1.00130000       2.07010000       0.04890000
H        0.74140000      -0.45310000       0.27680000
H       -0.41990000       0.10360000       1.49930000
H       -0.85380000      -2.20040000       0.84650000
H       -1.96900000      -3.93770000       1.86820000
H       -2.18000000      -5.50930000       1.09350000
H       -0.80740000      -4.49460000       0.64510000
H       -4.83710000      -3.41340000      -0.53180000
H       -4.55520000      -4.89340000       0.41430000
H       -4.35340000      -3.29800000       1.16640000
H       -1.52210000      -4.65510000      -1.81460000
H       -2.88260000      -5.69510000      -1.34670000
H       -3.16870000      -4.21310000      -2.28840000
