15
Properties=species:S:1:pos:R:3 gdb_127609=T pbc="F F F"
C        0.03140000       1.37890000       0.08380000
N        0.02810000      -0.06800000       0.04240000
N       -0.11610000      -0.74620000      -1.08510000
C       -0.07530000      -2.02520000      -0.70590000
C        0.10000000      -2.04920000       0.68410000
O        0.21310000      -3.16220000       1.44410000
C        0.04190000      -3.05460000       2.79660000
N        0.26940000      -4.06760000       3.50640000
N        0.16950000      -0.80420000       1.14760000
H        0.96340000       1.73830000       0.52660000
H       -0.05610000       1.73070000      -0.94290000
H       -0.81150000       1.74250000       0.67730000
H       -0.16630000      -2.83630000      -1.40790000
H       -0.29360000      -2.06390000       3.10950000
H        0.07970000      -3.85350000       4.48370000
