20
Properties=species:S:1:pos:R:3 gdb_90239=T pbc="F F F"
C       -0.24120000       1.48660000      -0.01800000
C       -0.05310000      -0.02240000       0.02550000
C        0.88140000      -0.61540000      -1.06850000
C        1.93930000      -1.22920000      -0.11610000
C        0.98280000      -1.92620000       0.92160000
N        0.63770000      -0.44620000       1.28760000
C        2.16760000      -0.24440000       0.94320000
C        3.30280000       0.26680000      -0.01800000
O        3.31820000      -1.09670000      -0.61150000
H        0.72220000       2.00690000      -0.00480000
H       -0.77220000       1.78390000      -0.92780000
H       -0.81860000       1.82330000       0.84780000
H       -1.03600000      -0.50500000       0.02430000
H        0.40760000      -1.38320000      -1.68590000
H        1.29630000       0.14150000      -1.73730000
H        0.11820000      -2.49880000       0.57170000
H        1.47890000      -2.41820000       1.75640000
H        2.67930000      -0.66840000       1.80730000
H        3.05210000       1.02050000      -0.76780000
H        4.25610000       0.49920000       0.46170000
