24
Properties=species:S:1:pos:R:3 gdb_118184=T pbc="F F F"
C       -0.13390000       1.59440000       0.07210000
C        0.09420000       0.08830000      -0.08670000
C        0.72400000      -0.55050000       1.15730000
C        0.88760000      -2.07930000       1.09080000
C        1.84840000      -2.52590000      -0.02080000
C        1.34350000      -2.62610000       2.45270000
C        1.21360000      -4.14540000       2.56210000
N        2.08620000      -4.73620000       3.43160000
O        0.38700000      -4.78740000       1.94200000
H        0.80960000       2.12050000       0.25700000
H       -0.58510000       2.02770000      -0.82600000
H       -0.79990000       1.80840000       0.91570000
H       -0.86200000      -0.40750000      -0.30010000
H        0.73070000      -0.08850000      -0.96140000
H        1.70380000      -0.08620000       1.34560000
H        0.10160000      -0.30090000       2.02820000
H       -0.09270000      -2.52810000       0.88950000
H        2.84830000      -2.09910000       0.12960000
H        1.93960000      -3.61530000      -0.03890000
H        1.49860000      -2.21210000      -1.00790000
H        2.37410000      -2.31520000       2.66920000
H        0.71950000      -2.20030000       3.25050000
H        2.73680000      -4.20650000       3.98390000
H        1.98770000      -5.72230000       3.60960000
