19
Properties=species:S:1:pos:R:3 gdb_73617=T pbc="F F F"
C       -0.03470000       1.49090000       0.00570000
C       -0.03740000      -0.01780000       0.03690000
C       -1.35680000      -0.74090000      -0.21060000
O       -1.21940000      -2.04630000       0.34030000
C       -0.27340000      -1.99330000       1.40620000
C        0.66270000      -0.84840000       1.06910000
C        1.23590000      -0.78030000      -0.34730000
C        1.27730000      -1.92900000      -1.29020000
O        2.18950000      -2.09690000      -2.06720000
H        0.93930000       1.89120000       0.30060000
H       -0.25800000       1.86890000      -0.99810000
H       -0.78790000       1.89710000       0.69070000
H       -2.16750000      -0.18320000       0.28680000
H       -1.62170000      -0.85480000      -1.26700000
H       -0.76970000      -1.79010000       2.36860000
H        0.20480000      -2.97580000       1.46860000
H        1.24820000      -0.40280000       1.86550000
H        2.11660000      -0.15220000      -0.44590000
H        0.42130000      -2.62910000      -1.24670000
