13
Properties=species:S:1:pos:R:3 gdb_133379=T pbc="F F F"
N        0.08700000       1.41870000       0.16100000
C        0.01310000       0.04810000      -0.03150000
N       -1.16680000      -0.46900000      -0.16320000
O       -1.22130000      -1.84110000      -0.48160000
C       -0.12490000      -2.66080000      -0.57050000
N       -0.22110000      -3.90170000      -0.81390000
C        1.16660000      -2.00550000      -0.37840000
F        2.23050000      -2.77230000      -0.47820000
C        1.25240000      -0.69470000      -0.12730000
H        0.80130000       1.72160000       0.80810000
H       -0.81360000       1.83840000       0.35220000
H       -1.20090000      -4.17020000      -0.91840000
H        2.20850000      -0.19940000      -0.01220000
