16
Properties=species:S:1:pos:R:3 gdb_27638=T pbc="F F F"
C        0.10270000       1.45380000      -0.06290000
C       -0.06650000      -0.02120000      -0.03690000
C       -1.14340000      -0.84320000      -0.05270000
C       -0.62580000      -2.18880000      -0.00830000
C       -1.36020000      -3.39870000      -0.00530000
N       -1.95950000      -4.39040000      -0.00280000
C        0.74050000      -2.08130000       0.03150000
C        1.83070000      -3.08530000       0.08610000
O        1.08300000      -0.77200000       0.01440000
H        0.68200000       1.77480000      -0.93560000
H       -0.87560000       1.93700000      -0.10360000
H        0.62710000       1.81240000       0.82970000
H       -2.18090000      -0.55390000      -0.09060000
H        2.49620000      -2.99470000      -0.77940000
H        2.44200000      -2.95780000       0.98630000
H        1.40520000      -4.09050000       0.09410000
