23
Properties=species:S:1:pos:R:3 gdb_119390=T pbc="F F F"
C       -0.02030000       1.60440000       0.05210000
C       -0.02040000       0.07600000       0.13870000
C       -1.40860000      -0.53760000      -0.09220000
C       -1.42660000      -2.05160000      -0.03780000
C       -1.01240000      -2.87700000       1.23940000
C       -1.77510000      -4.01090000       0.47600000
C       -2.76170000      -2.88290000       0.02140000
C       -0.90250000      -4.13130000      -0.78210000
C       -0.67470000      -2.85960000      -1.11740000
H        0.97860000       2.01550000       0.22840000
H       -0.35130000       1.94500000      -0.93550000
H       -0.69680000       2.04300000       0.79440000
H        0.68690000      -0.33320000      -0.59400000
H        0.35180000      -0.23640000       1.12270000
H       -2.10570000      -0.14000000       0.65780000
H       -1.79450000      -0.20850000      -1.06780000
H        0.05450000      -3.02520000       1.42250000
H       -1.52270000      -2.54390000       2.15010000
H       -2.11460000      -4.92120000       0.96910000
H       -3.43960000      -2.54800000       0.81460000
H       -3.30300000      -3.03400000      -0.91610000
H       -0.57920000      -5.04730000      -1.25610000
H       -0.11480000      -2.44500000      -1.94450000
