18
Properties=species:S:1:pos:R:3 gdb_6127=T pbc="F F F"
C       -0.22020000       1.16210000      -1.44830000
C        0.31700000      -0.13300000      -0.86390000
O        1.71070000      -0.38770000      -1.16590000
C        2.11560000      -0.49880000       0.23450000
C        2.54810000      -1.91960000       0.58180000
C        3.15650000       0.54840000       0.61000000
C        0.66570000      -0.16040000       0.62990000
O        0.08200000       0.03120000       1.65380000
H        0.38130000       2.01780000      -1.13000000
H       -0.20600000       1.11670000      -2.54110000
H       -1.25270000       1.31790000      -1.12060000
H       -0.31510000      -0.98200000      -1.16340000
H        3.47300000      -2.16580000       0.05050000
H        2.72810000      -2.01240000       1.65710000
H        1.78400000      -2.64650000       0.29350000
H        2.82390000       1.55180000       0.33260000
H        3.34190000       0.52830000       1.68810000
H        4.09780000       0.34250000       0.09050000
