22
Properties=species:S:1:pos:R:3 gdb_88971=T pbc="F F F"
C       -0.63370000       1.09460000       0.13900000
N        0.02640000      -0.20410000       0.21040000
C        1.43110000      -0.24490000      -0.18160000
C        1.04590000      -0.45600000       1.24130000
C        1.39830000       0.52720000       2.34240000
C        0.54610000       0.31180000       3.58250000
O       -0.84030000       0.41800000       3.36760000
C        0.99940000      -0.65950000       4.64800000
C        0.99620000       0.83670000       4.90790000
H        0.04460000       1.95690000       0.23420000
H       -1.13280000       1.17120000      -0.83240000
H       -1.38480000       1.17240000       0.92890000
H        1.74000000      -1.08000000      -0.80560000
H        1.90970000       0.70350000      -0.42690000
H        1.02270000      -1.48940000       1.59100000
H        2.45410000       0.39810000       2.61070000
H        1.28640000       1.55950000       1.99510000
H       -1.11060000      -0.33090000       2.82350000
H        0.23050000      -1.24610000       5.13780000
H        1.95350000      -1.16260000       4.52940000
H        1.94700000       1.35580000       4.96380000
H        0.22340000       1.22530000       5.56050000
