16
Properties=species:S:1:pos:R:3 gdb_43838=T pbc="F F F"
O        0.00990000      -0.02530000      -0.09560000
C        0.00390000       1.18320000      -0.03730000
N       -1.09800000       1.99500000       0.08730000
C       -0.82760000       3.40930000       0.05990000
C       -1.69390000       4.36820000      -0.71490000
C       -1.67970000       4.39940000       0.80050000
C        0.67260000       3.49290000       0.00740000
O        1.31470000       2.88750000       1.12910000
C        1.19680000       2.12410000      -0.08670000
H       -1.99900000       1.60530000       0.31530000
H       -1.20950000       5.17570000      -1.25470000
H       -2.57050000       3.96210000      -1.20760000
H       -2.55120000       4.01740000       1.32180000
H       -1.18750000       5.22380000       1.30460000
H        1.16130000       4.36280000      -0.42060000
H        2.11950000       1.82310000      -0.56950000
