19
Properties=species:S:1:pos:R:3 gdb_89913=T pbc="F F F"
C       -0.20350000       1.51390000       0.21400000
N        0.04970000       0.09090000       0.08590000
C        0.97300000      -0.37730000      -0.99050000
C        1.79650000      -1.11380000       0.06880000
C        2.31590000      -0.15450000       1.10810000
C        0.85330000      -0.57340000       1.11030000
O        2.24380000      -2.42070000      -0.07400000
C        3.53490000      -2.57920000      -0.45750000
N        3.98100000      -3.73680000      -0.67830000
H        0.70630000       2.13080000       0.32290000
H       -0.74750000       1.86620000      -0.66800000
H       -0.83630000       1.68950000       1.08990000
H        0.47020000      -1.04350000      -1.69830000
H        1.49800000       0.41500000      -1.54060000
H        2.90410000      -0.62080000       1.89250000
H        2.62530000       0.85260000       0.84170000
H        0.39210000      -1.05770000       1.96360000
H        4.08260000      -1.63140000      -0.52830000
H        4.96270000      -3.68490000      -0.94290000
