15
Properties=species:S:1:pos:R:3 gdb_74689=T pbc="F F F"
N       -0.02240000       1.35590000       0.33380000
C       -0.08500000       0.01420000       0.10540000
N       -1.11140000      -0.73970000       0.21570000
C       -0.66040000      -2.10170000      -0.04680000
C       -1.01280000      -2.62620000      -1.47070000
C        0.41340000      -2.25440000      -1.92040000
O        0.97440000      -2.20180000      -2.97270000
C        0.84090000      -1.91810000      -0.45650000
O        1.12890000      -0.53940000      -0.21500000
H        0.71950000       1.84950000      -0.13640000
H       -0.91490000       1.82240000       0.35270000
H       -0.90290000      -2.77680000       0.77670000
H       -1.19220000      -3.70570000      -1.52860000
H       -1.82310000      -2.10200000      -1.98320000
H        1.63010000      -2.53850000      -0.02820000
