20
Properties=species:S:1:pos:R:3 gdb_78986=T pbc="F F F"
C       -0.35390000       1.49050000      -0.06930000
C       -0.07360000      -0.00210000      -0.11130000
C        0.66560000      -0.57040000      -1.34420000
C        0.88920000      -2.06050000      -0.99930000
C        1.20880000      -1.89020000       0.49540000
C        2.31230000      -1.85800000      -0.51350000
C        2.02190000      -0.33710000      -0.57330000
C        3.04580000       0.74150000      -0.74160000
N        1.13820000      -0.41420000       0.70660000
H        0.50140000       2.08790000      -0.39410000
H       -1.19830000       1.73530000      -0.72290000
H       -0.60930000       1.79880000       0.94920000
H       -0.97210000      -0.55500000       0.18670000
H        0.46930000      -0.27900000      -2.37680000
H        0.42600000      -2.94310000      -1.41830000
H        0.96880000      -2.61310000       1.26420000
H        3.21370000      -2.44580000      -0.62170000
H        3.56190000       0.62690000      -1.70190000
H        2.60680000       1.74190000      -0.70980000
H        3.79380000       0.67630000       0.05620000
