12
Properties=species:S:1:pos:R:3 gdb_131120=T pbc="F F F"
O        0.12230000       1.48910000      -0.07230000
C        0.01350000       0.09530000      -0.00150000
C        0.57770000      -0.57340000      -1.20230000
N        1.01480000      -1.09620000      -2.13470000
C        0.65480000      -0.48550000       1.23850000
N        1.39190000       0.25870000       2.01420000
O        1.82290000      -0.55690000       3.01660000
N        1.34630000      -1.82650000       2.86190000
C        0.62900000      -1.80440000       1.77360000
H        1.00410000       1.74300000       0.22980000
H       -1.06000000      -0.13160000       0.01570000
H        0.13530000      -2.69230000       1.41090000
