17
Properties=species:S:1:pos:R:3 gdb_72037=T pbc="F F F"
C        0.01830000       1.46060000      -0.00850000
C        0.02320000      -0.03080000       0.02070000
O        0.14540000      -0.69880000      -1.22990000
C        0.05170000      -2.03800000      -0.76120000
C        1.17820000      -2.13120000       0.28730000
C        0.67180000      -0.92350000       1.07050000
O        1.29770000      -0.36820000       2.17210000
C       -0.84480000      -0.95730000       0.85700000
O       -1.14070000      -2.06520000       0.02500000
H        0.93600000       1.84140000      -0.46760000
H       -0.83660000       1.83940000      -0.57660000
H       -0.03470000       1.84930000       1.01150000
H       -0.00170000      -2.74610000      -1.58360000
H        1.14430000      -3.06850000       0.84830000
H        2.16670000      -1.97640000      -0.14930000
H        1.13770000      -0.93800000       2.93310000
H       -1.61190000      -0.66900000       1.56140000
