14
Properties=species:S:1:pos:R:3 gdb_128263=T pbc="F F F"
C       -0.00290000       1.44880000       0.00800000
N       -0.04980000      -0.00500000       0.00350000
C       -1.20660000      -0.68950000       0.00990000
N       -2.34290000      -0.04640000       0.02020000
C       -3.50330000      -0.77030000       0.02620000
O       -4.61610000      -0.33760000       0.03550000
O       -3.41130000      -2.20290000       0.02140000
N       -2.21720000      -2.86120000       0.01070000
C       -1.15440000      -2.14210000       0.00500000
H        1.04150000       1.76310000      -0.00110000
H       -0.51480000       1.85390000      -0.86950000
H       -0.49750000       1.84820000       0.89800000
H        0.81320000      -0.52090000      -0.00360000
H       -0.21610000      -2.68860000      -0.00350000
