20
Properties=species:S:1:pos:R:3 gdb_62567=T pbc="F F F"
C        0.06140000       1.51990000       0.03290000
C        0.05160000       0.00260000       0.05820000
C       -1.19440000      -0.58650000      -0.58520000
C        1.32810000      -0.82950000      -0.21220000
C        2.50600000      -0.11730000       0.42270000
O        3.55120000       0.34180000       0.05530000
N        1.89900000      -0.15420000       1.69200000
C        0.68030000      -0.80210000       1.17400000
C        0.04900000      -1.88380000       2.00030000
H        0.95130000       1.94630000       0.49940000
H        0.02330000       1.88440000      -0.99920000
H       -0.81760000       1.91540000       0.55540000
H       -1.29800000      -0.22010000      -1.61220000
H       -1.16730000      -1.67830000      -0.62680000
H       -2.09480000      -0.28930000      -0.03560000
H        1.35270000      -1.61380000      -0.95660000
H        1.90480000       0.63200000       2.33300000
H       -0.40440000      -1.46250000       2.90560000
H       -0.73740000      -2.40770000       1.45330000
H        0.80260000      -2.61260000       2.31330000
