23
Properties=species:S:1:pos:R:3 gdb_119993=T pbc="F F F"
C       -1.46000000       0.50590000      -2.38340000
O       -0.73070000      -0.64820000      -2.02300000
C       -1.24340000      -1.83760000      -2.62190000
C       -0.46390000      -3.01640000      -2.10270000
C       -0.08170000      -4.20020000      -2.97350000
C       -0.49780000      -4.35920000      -4.42280000
C        0.98690000      -3.24060000      -2.50070000
C        1.70880000      -2.25650000      -3.39920000
O        2.08260000      -1.08350000      -2.70070000
H       -1.44410000       0.67570000      -3.47090000
H       -2.50920000       0.43310000      -2.06010000
H       -0.99250000       1.35740000      -1.88410000
H       -2.30910000      -1.94200000      -2.36250000
H       -1.18810000      -1.74890000      -3.71610000
H       -0.70170000      -3.25100000      -1.06890000
H       -0.09230000      -5.14800000      -2.44020000
H       -0.47480000      -3.42330000      -4.98470000
H        0.17060000      -5.05970000      -4.93530000
H       -1.51420000      -4.76260000      -4.49350000
H        1.62210000      -3.60220000      -1.69620000
H        2.63850000      -2.70540000      -3.76760000
H        1.10500000      -2.01550000      -4.28760000
H        1.26430000      -0.73090000      -2.31990000
