18
Properties=species:S:1:pos:R:3 gdb_6949=T pbc="F F F"
C       -0.02450000       1.53640000       0.02090000
C       -0.00290000       0.00020000      -0.03690000
C       -1.43530000      -0.55730000      -0.00420000
C        0.81980000      -0.53980000      -1.23490000
C        1.95410000      -1.31150000      -0.61190000
C        1.92410000      -1.30740000       0.72590000
C        0.76140000      -0.52970000       1.20310000
O        0.43520000      -0.32370000       2.35060000
H        0.98810000       1.95130000      -0.02720000
H       -0.60060000       1.94940000      -0.81390000
H       -0.47990000       1.86800000       0.95830000
H       -2.02510000      -0.16460000      -0.83930000
H       -1.43900000      -1.65060000      -0.07050000
H       -1.92410000      -0.27530000       0.93250000
H        0.22420000      -1.18640000      -1.89180000
H        1.20270000       0.26580000      -1.87430000
H        2.70490000      -1.81010000      -1.21670000
H        2.62290000      -1.78630000       1.39980000
