17
Properties=species:S:1:pos:R:3 gdb_126171=T pbc="F F F"
C        0.05870000       1.54990000       0.14270000
C        0.02280000       0.02500000       0.03000000
C        0.68270000      -0.48160000      -1.26540000
O        2.03490000      -0.06310000      -1.38610000
C        0.57800000      -1.97480000      -1.38650000
C       -0.09570000      -2.81500000      -2.21770000
N        0.21060000      -4.09780000      -1.82760000
N        0.99890000      -4.09880000      -0.85510000
O        1.27010000      -2.71340000      -0.52020000
H        1.08590000       1.91770000       0.08180000
H       -0.51250000       2.01910000      -0.66590000
H       -0.37200000       1.88010000       1.09200000
H        0.53720000      -0.43660000       0.88260000
H       -1.01110000      -0.33970000       0.06020000
H        0.16870000      -0.04180000      -2.12710000
H        2.54180000      -0.50390000      -0.69380000
H       -0.75350000      -2.60800000      -3.04390000
