20
Properties=species:S:1:pos:R:3 gdb_117135=T pbc="F F F"
C        0.55330000       0.11800000       1.35850000
C       -0.10810000      -0.13480000       0.01740000
O       -1.03420000      -1.22320000       0.18920000
C       -1.74270000      -1.59870000      -0.89330000
N       -1.59550000      -1.02730000      -2.01680000
C       -2.68570000      -2.73710000      -0.53900000
C       -1.92190000      -3.95220000       0.03290000
C       -3.71360000      -2.27890000       0.49150000
O       -4.90000000      -2.43310000       0.36960000
H        1.26840000       0.94100000       1.26900000
H       -0.18790000       0.38770000       2.11640000
H        1.09160000      -0.76930000       1.70380000
H       -0.65470000       0.74090000      -0.34660000
H        0.61660000      -0.40720000      -0.75640000
H       -2.21820000      -1.43160000      -2.71260000
H       -3.23770000      -3.02910000      -1.43570000
H       -1.40770000      -3.68670000       0.95950000
H       -2.61470000      -4.77340000       0.23580000
H       -1.17290000      -4.30000000      -0.68390000
H       -3.27400000      -1.80350000       1.39460000
