17
Properties=species:S:1:pos:R:3 gdb_127133=T pbc="F F F"
C       -0.07920000       1.54760000       0.17030000
N       -0.06270000       0.09490000       0.12180000
C        0.87210000      -0.52780000       1.05130000
C       -1.29930000      -0.51310000      -0.02410000
N       -2.44370000       0.16580000      -0.13460000
N       -3.36490000      -0.78340000      -0.31230000
N       -2.91340000      -2.03860000      -0.34520000
C       -1.61350000      -1.89350000      -0.15790000
O       -0.75200000      -2.93400000      -0.10940000
H        0.94860000       1.91240000       0.08740000
H       -0.66590000       1.93800000      -0.66320000
H       -0.51670000       1.93990000       1.10290000
H        0.62170000      -0.32050000       2.10550000
H        0.88480000      -1.60810000       0.90430000
H        1.87680000      -0.14020000       0.85750000
H       -4.31680000      -0.55960000      -0.54180000
H       -1.26950000      -3.74140000      -0.21850000
