21
Properties=species:S:1:pos:R:3 gdb_118553=T pbc="F F F"
C        0.04600000       1.49090000      -0.01550000
C       -0.01840000      -0.03800000      -0.06650000
C       -1.45040000      -0.57030000       0.04670000
C       -1.55490000      -2.09280000       0.03710000
C       -2.99350000      -2.60840000       0.13610000
O       -3.79530000      -2.16300000      -0.93670000
O       -1.02830000      -2.58440000      -1.22130000
C       -0.08580000      -3.54610000      -1.20510000
O        0.34590000      -4.04480000      -2.20020000
H        1.07690000       1.84690000      -0.10160000
H       -0.53050000       1.93720000      -0.83280000
H       -0.36270000       1.87540000       0.92560000
H        0.42570000      -0.39310000      -1.00300000
H        0.59280000      -0.45740000       0.74460000
H       -1.90450000      -0.21740000       0.98190000
H       -2.07210000      -0.17870000      -0.76520000
H       -0.96150000      -2.52000000       0.85860000
H       -2.97460000      -3.70830000       0.19780000
H       -3.45410000      -2.23110000       1.05520000
H       -3.36030000      -2.45120000      -1.74800000
H        0.24030000      -3.80940000      -0.17990000
