15
Properties=species:S:1:pos:R:3 gdb_25970=T pbc="F F F"
C       -0.16910000       1.49860000       0.03780000
C        0.14370000       0.02780000      -0.02470000
O        1.24730000      -0.45990000      -0.02660000
O       -1.00950000      -0.68890000      -0.07970000
C       -1.02350000      -2.05650000      -0.14350000
C       -2.11560000      -2.87830000      -0.20240000
N       -1.69780000      -4.18830000      -0.25530000
C       -0.38600000      -4.14700000      -0.22860000
N        0.08500000      -2.86670000      -0.16020000
H        0.76130000       2.06270000       0.08170000
H       -0.74730000       1.79600000      -0.84150000
H       -0.78080000       1.71410000       0.91820000
H       -3.15700000      -2.59980000      -0.20910000
H        0.27750000      -4.99780000      -0.25560000
H        1.02950000      -2.51710000      -0.12620000
