19
Properties=species:S:1:pos:R:3 gdb_18709=T pbc="F F F"
C        0.12040000       1.56130000       0.03110000
C        0.01900000       0.03120000       0.01170000
C        0.58340000      -0.54900000      -1.30610000
C        0.77590000      -2.04290000      -1.27100000
C        1.07650000      -2.69360000      -0.14640000
C        1.21350000      -1.97160000       1.14220000
N        2.13690000      -0.79680000       1.16130000
C        0.68510000      -0.58310000       1.22950000
H        1.17030000       1.87320000       0.02370000
H       -0.37070000       2.00280000      -0.84250000
H       -0.34980000       1.98200000       0.92670000
H       -1.04230000      -0.25050000       0.07100000
H       -0.07990000      -0.26950000      -2.13270000
H        1.54910000      -0.06960000      -1.51430000
H        0.69200000      -2.58550000      -2.20880000
H        1.22630000      -3.76930000      -0.14480000
H        1.18400000      -2.57870000       2.04300000
H        2.54550000      -0.70520000       2.08820000
H        0.26560000      -0.27080000       2.18520000
