21
Properties=species:S:1:pos:R:3 gdb_40289=T pbc="F F F"
C       -0.04300000       1.53140000      -0.03650000
C        1.30590000       0.85580000      -0.01280000
C        0.05070000       0.02250000       0.01530000
C       -0.34070000      -0.68980000       1.30060000
C        0.57050000      -1.87000000       1.68520000
O        1.08480000      -2.64430000       0.60880000
C        0.25140000      -2.89170000      -0.48810000
O        0.35960000      -1.92130000      -1.49360000
C       -0.34760000      -0.71480000      -1.25170000
H       -0.37490000       2.05180000       0.85580000
H       -0.36840000       1.99390000      -0.96280000
H        1.89930000       0.85210000      -0.92070000
H        1.89350000       0.92220000       0.89680000
H       -0.33120000       0.01110000       2.14370000
H       -1.37980000      -1.03020000       1.20770000
H        1.46180000      -1.49540000       2.19880000
H        0.03550000      -2.51990000       2.39520000
H        0.60870000      -3.82140000      -0.93830000
H       -0.80100000      -3.01290000      -0.17470000
H       -1.43160000      -0.92210000      -1.21880000
H       -0.15540000      -0.09000000      -2.12900000
