19
Properties=species:S:1:pos:R:3 gdb_83966=T pbc="F F F"
O        0.09490000       1.37290000       0.11770000
C       -0.00690000      -0.02110000      -0.00920000
C       -1.44210000      -0.59250000      -0.24990000
C       -2.06020000       0.24000000      -1.39660000
C       -1.17010000       0.16530000      -2.65480000
O        0.23190000       0.27400000      -2.37010000
C        0.67060000      -0.57140000      -1.28020000
C        0.10840000      -1.97670000      -1.32960000
C       -1.08580000      -1.98750000      -0.72880000
H        0.19740000       1.71080000      -0.78310000
H        0.42520000      -0.47520000       0.88760000
H       -2.07840000      -0.56840000       0.63830000
H       -3.06630000      -0.10940000      -1.65380000
H       -2.14920000       1.27510000      -1.05090000
H       -1.36010000      -0.77550000      -3.18560000
H       -1.39050000       0.98580000      -3.34330000
H        1.75960000      -0.49580000      -1.28850000
H        0.59830000      -2.81070000      -1.81640000
H       -1.74030000      -2.84610000      -0.62680000
