21
Properties=species:S:1:pos:R:3 gdb_50156=T pbc="F F F"
O        0.01130000      -0.11390000      -0.26060000
C        0.08740000       1.06730000      -0.03790000
C        1.34880000       1.87990000      -0.03910000
C        1.33750000       3.19140000      -0.88570000
C        2.05360000       3.92190000       0.28240000
C        3.56160000       4.23480000       0.07060000
C        3.18480000       5.72700000      -0.13480000
C        1.81410000       5.42920000       0.53230000
C        1.60990000       2.77340000       1.21520000
H       -0.82710000       1.66630000       0.19840000
H        2.19550000       1.23340000      -0.27680000
H        1.83570000       3.15560000      -1.85780000
H        0.31550000       3.56200000      -1.02770000
H        4.13370000       4.08420000       0.99200000
H        4.07530000       3.71790000      -0.74500000
H        3.82420000       6.47630000       0.33650000
H        3.07780000       5.98030000      -1.19290000
H        0.91850000       5.87180000       0.08650000
H        1.82140000       5.66470000       1.60190000
H        0.67450000       3.01180000       1.73550000
H        2.33180000       2.40050000       1.94630000
