22
Properties=species:S:1:pos:R:3 gdb_89077=T pbc="F F F"
C        0.15800000       1.55300000      -0.30000000
C        0.07710000       0.06170000      -0.05370000
C        1.32190000      -0.79140000       0.00610000
C        0.48680000      -0.58640000       1.25080000
C        1.02450000       0.19180000       2.43420000
C        1.86180000      -0.68730000       3.37210000
C        2.39360000       0.10350000       4.58410000
C        3.18610000      -0.72130000       5.49330000
N        3.80960000      -1.38940000       6.20080000
H        1.05920000       1.99470000       0.13500000
H        0.18110000       1.76470000      -1.37460000
H       -0.70660000       2.07780000       0.12220000
H       -0.77930000      -0.40700000      -0.53240000
H        1.32470000      -1.76300000      -0.47540000
H        2.27620000      -0.27370000      -0.04020000
H       -0.12330000      -1.43830000       1.54440000
H        1.63740000       1.03280000       2.08870000
H        0.19120000       0.63240000       2.99970000
H        1.26070000      -1.52990000       3.73170000
H        2.70530000      -1.11900000       2.82300000
H        3.01400000       0.94260000       4.24740000
H        1.56010000       0.53860000       5.14820000
