22
Properties=species:S:1:pos:R:3 gdb_59879=T pbc="F F F"
C        0.05780000       1.60650000      -0.06750000
C        0.03360000       0.07580000       0.04070000
C        0.68770000      -0.57750000      -1.18280000
C        0.70710000      -0.40450000       1.33510000
C       -0.06230000      -0.04300000       2.59820000
O       -1.24160000       0.23540000       2.61490000
N        0.72130000       0.00190000       3.75380000
C        1.40080000      -1.13350000       4.35150000
C        0.24890000      -0.45600000       5.03660000
H        1.08840000       1.98180000      -0.09840000
H       -0.44260000       1.93990000      -0.98240000
H       -0.45130000       2.07030000       0.78110000
H       -1.01460000      -0.24050000       0.09050000
H        1.74610000      -0.30040000      -1.26230000
H        0.63300000      -1.67050000      -1.13350000
H        0.19400000      -0.25890000      -2.10650000
H        0.79630000      -1.50070000       1.32120000
H        1.73160000      -0.02220000       1.41670000
H        1.22050000      -2.11840000       3.92640000
H        2.41920000      -0.96030000       4.68850000
H        0.43690000       0.20540000       5.87730000
H       -0.70920000      -0.96830000       5.05380000
