14
Properties=species:S:1:pos:R:3 gdb_128195=T pbc="F F F"
C        0.02340000       1.46200000       0.10050000
N        0.02170000       0.01410000       0.15320000
C        0.29920000      -0.75560000      -0.94270000
C        0.24190000      -2.21150000      -0.68710000
C        0.49020000      -3.04180000      -1.68510000
O        0.70280000      -3.77990000      -2.54790000
N        2.90220000      -1.26420000      -3.81440000
N        3.04270000      -0.32370000      -4.36430000
O        0.56970000      -0.28800000      -2.03920000
H        0.76020000       1.88590000       0.79220000
H        0.28580000       1.74800000      -0.91840000
H       -0.96320000       1.87270000       0.34380000
H       -0.19920000      -0.43870000       1.02380000
H        0.00550000      -2.64910000       0.27470000
