18
Properties=species:S:1:pos:R:3 gdb_79907=T pbc="F F F"
C       -0.15010000       1.51120000       0.08470000
C       -0.01470000       0.01910000      -0.08110000
C        0.70160000      -0.66960000      -1.21690000
C        1.66880000       0.06180000      -2.07220000
C        2.71600000       0.47980000      -1.34270000
C        3.92110000       1.26800000      -1.73310000
C        2.44350000       0.13580000       0.08640000
O        3.05870000       0.50370000       1.05620000
N        1.26600000      -0.69310000       0.13670000
H        0.61500000       2.06380000      -0.46330000
H       -1.13250000       1.83230000      -0.27520000
H       -0.07320000       1.78020000       1.14310000
H       -0.85270000      -0.54350000       0.32850000
H        0.28630000      -1.60400000      -1.58790000
H        1.53400000       0.19610000      -3.13910000
H        4.01440000       2.15660000      -1.09980000
H        4.83310000       0.68180000      -1.57380000
H        3.88580000       1.57790000      -2.78020000
