16
Properties=species:S:1:pos:R:3 gdb_67908=T pbc="F F F"
C       -0.08790000       1.51140000      -0.00630000
C        0.03720000       0.01810000       0.07570000
O       -1.25250000      -0.67750000       0.06550000
C       -0.91300000      -1.43870000       1.16710000
O       -1.58730000      -2.23640000       1.73000000
C        0.47690000      -0.79410000       1.31450000
C        1.60180000      -1.43300000       0.45980000
N        0.94140000      -2.13960000      -0.65300000
C        1.15780000      -0.68130000      -0.75000000
H        0.89440000       1.98300000       0.09810000
H       -0.50530000       1.80590000      -0.97520000
H       -0.74490000       1.89070000       0.78090000
H        0.74400000      -0.34010000       2.26620000
H        2.59330000      -1.69980000       0.79970000
H        1.66390000      -2.59200000      -1.21150000
H        1.72440000      -0.24830000      -1.56520000
