19
Properties=species:S:1:pos:R:3 gdb_66358=T pbc="F F F"
C        0.00200000       1.52100000       0.01870000
C       -0.02110000      -0.01400000       0.00510000
C        0.68840000      -0.56350000      -1.25980000
O        0.80370000      -1.96620000      -1.23120000
C        1.52930000      -2.42220000      -0.09680000
C        0.84680000      -1.97150000       1.19440000
N        0.61790000      -0.52070000       1.23380000
C       -1.42740000      -0.47390000       0.00010000
N       -2.53190000      -0.81150000      -0.02660000
H        1.03800000       1.87480000      -0.00970000
H       -0.52480000       1.92790000      -0.84770000
H       -0.47130000       1.89450000       0.92890000
H        0.13370000      -0.31020000      -2.16780000
H        1.68460000      -0.08880000      -1.31010000
H        1.56600000      -3.51280000      -0.17310000
H        2.56380000      -2.03660000      -0.13350000
H       -0.12510000      -2.47010000       1.28260000
H        1.44400000      -2.25220000       2.06770000
H        1.50510000      -0.03590000       1.34220000
