17
Properties=species:S:1:pos:R:3 gdb_33176=T pbc="F F F"
O       -0.00150000       1.45000000       0.11750000
C        0.01060000       0.03230000       0.07100000
C       -1.39830000      -0.56130000      -0.02220000
N       -2.09790000      -0.13650000      -1.21830000
C       -2.73720000       1.08610000      -1.43040000
C       -3.21960000       1.08650000      -2.69060000
N       -2.87280000      -0.13460000      -3.26150000
C       -2.16490000      -0.92410000      -2.36610000
O       -1.70480000      -2.03960000      -2.53190000
H       -0.20970000       1.76870000      -0.76670000
H        0.61910000      -0.33970000      -0.76520000
H        0.47830000      -0.30590000       1.00170000
H       -1.34170000      -1.65310000      -0.05860000
H       -1.98240000      -0.26360000       0.85480000
H       -2.80290000       1.82790000      -0.65360000
H       -3.77860000       1.83430000      -3.22510000
H       -3.08530000      -0.44870000      -4.19130000
