18
Properties=species:S:1:pos:R:3 gdb_61173=T pbc="F F F"
C       -0.10310000       1.60000000       0.10090000
C       -0.03520000       0.06370000      -0.02310000
C       -1.37420000      -0.51740000       0.03910000
C       -2.47810000      -0.98910000       0.08900000
C        0.69220000      -0.41780000      -1.31460000
O        0.10630000       0.08090000      -2.49440000
C        2.20850000      -0.10890000      -1.25500000
C        2.92970000      -0.65090000      -2.40350000
N        3.50860000      -1.08390000      -3.30440000
H        0.89420000       2.05000000       0.11890000
H       -0.67460000       2.03150000      -0.72610000
H       -0.61180000       1.87800000       1.02630000
H        0.54210000      -0.32360000       0.82830000
H       -3.45160000      -1.41160000       0.13020000
H        0.57010000      -1.50300000      -1.37680000
H        0.22460000       1.03650000      -2.52500000
H        2.37690000       0.97400000      -1.21980000
H        2.64170000      -0.52690000      -0.33910000
