16
Properties=species:S:1:pos:R:3 gdb_69685=T pbc="F F F"
O       -0.07440000       1.47560000       0.21860000
C       -0.04110000       0.11080000       0.02060000
C       -0.44780000      -0.57960000      -1.24620000
C       -1.17380000      -0.87460000       0.05340000
N       -0.49250000      -1.74280000       1.09910000
C        0.84860000      -2.25650000       0.67850000
C        1.21760000      -2.89180000      -0.55650000
C        1.59550000      -3.53640000      -1.50020000
C        0.68550000      -0.81540000       1.02310000
H        0.60310000       1.87850000      -0.33650000
H       -1.05100000       0.06600000      -1.87990000
H        0.16840000      -1.29000000      -1.77710000
H       -2.24150000      -0.74490000       0.16620000
H        1.24890000      -2.81760000       1.52430000
H        1.91120000      -4.07810000      -2.35750000
H        1.12110000      -0.40470000       1.93040000
