21
Properties=species:S:1:pos:R:3 gdb_91022=T pbc="F F F"
C       -0.96430000       1.05600000       0.63470000
C       -0.37300000      -0.33190000       0.78080000
O        0.30050000      -0.77770000      -0.42320000
C        1.44770000      -1.22030000       0.31980000
C        2.57640000      -0.20750000       0.37290000
C        3.30650000      -0.41820000       1.66970000
C        2.01610000       0.36720000       1.69130000
C        1.98350000       1.77030000       2.23570000
C        0.86740000      -0.64580000       1.65990000
H       -0.21540000       1.77170000       0.28970000
H       -1.77200000       1.03430000      -0.10430000
H       -1.38430000       1.40400000       1.58470000
H       -1.17800000      -1.04100000       1.02860000
H        1.68670000      -2.27140000       0.13010000
H        3.00930000       0.30250000      -0.47950000
H        3.36740000      -1.41100000       2.11200000
H        4.20440000       0.17740000       1.80120000
H        2.91500000       2.29690000       2.00310000
H        1.15790000       2.36310000       1.83510000
H        1.88120000       1.75800000       3.32810000
H        0.67840000      -1.22850000       2.56450000
