17
Properties=species:S:1:pos:R:3 gdb_8018=T pbc="F F F"
C       -0.09690000       1.55590000       0.02500000
C        0.00370000       0.04940000      -0.04450000
C       -1.28720000      -0.77000000       0.27810000
C       -0.55240000      -1.33110000       1.53080000
N        0.71690000      -0.65940000       1.09430000
C        1.49850000      -1.39750000       0.16410000
O        2.17230000      -2.37420000       0.31900000
C        1.01050000      -0.57230000      -1.04670000
H        0.89720000       2.01310000       0.05040000
H       -0.63070000       1.94440000      -0.84980000
H       -0.63950000       1.87550000       0.92050000
H       -2.17640000      -0.16890000       0.47880000
H       -1.53750000      -1.52710000      -0.46930000
H       -0.90740000      -0.93150000       2.48350000
H       -0.45610000      -2.41620000       1.61140000
H        0.60740000      -1.18210000      -1.85810000
H        1.73990000       0.13120000      -1.45740000
