21
Properties=species:S:1:pos:R:3 gdb_120897=T pbc="F F F"
C        0.23790000       1.36900000      -0.01180000
O        0.18970000      -0.03700000      -0.02720000
C        0.60510000      -0.61700000       1.19010000
C        0.53800000      -2.12270000       1.05320000
C        1.55730000      -2.80950000       0.09230000
C        1.78190000      -3.85610000       1.18450000
C        1.77340000      -5.31540000       1.07590000
O        2.97320000      -4.58910000       1.38640000
C        1.10150000      -2.97320000       2.23370000
H        1.25910000       1.74210000       0.16700000
H       -0.09920000       1.72010000      -0.99010000
H       -0.42020000       1.79290000       0.76380000
H        1.63690000      -0.30480000       1.43350000
H       -0.03860000      -0.27620000       2.02080000
H       -0.48630000      -2.41620000       0.80760000
H        1.19320000      -3.15140000      -0.87840000
H        2.44940000      -2.19350000      -0.06060000
H        1.37130000      -5.91930000       1.88890000
H        1.75560000      -5.78690000       0.09370000
H        1.84070000      -2.41960000       2.82300000
H        0.38670000      -3.44280000       2.91340000
