22
Properties=species:S:1:pos:R:3 gdb_111507=T pbc="F F F"
C        0.43480000       0.91580000       0.68760000
O       -0.36040000       0.25720000      -0.27170000
C        0.39230000      -0.35270000      -1.30780000
C        1.15190000      -1.61310000      -0.87360000
C        0.51570000      -2.47920000       0.15020000
N        0.38130000      -2.82040000      -1.26800000
C       -0.87410000      -2.33310000      -1.88960000
C       -0.58040000      -0.89930000      -2.37820000
C       -1.80830000      -0.03790000      -2.66090000
H        1.09780000       0.21960000       1.22140000
H        1.05630000       1.69900000       0.22530000
H       -0.24280000       1.38150000       1.40750000
H        1.08450000       0.39100000      -1.73110000
H        2.22440000      -1.65740000      -1.04220000
H        1.12420000      -3.16500000       0.73400000
H       -0.35290000      -2.07780000       0.66660000
H       -1.14220000      -2.99780000      -2.71600000
H       -1.70590000      -2.34290000      -1.17340000
H        0.01380000      -0.99290000      -3.29620000
H       -2.40110000       0.10410000      -1.75460000
H       -1.52170000       0.95170000      -3.03110000
H       -2.44190000      -0.50690000      -3.42090000
