18
Properties=species:S:1:pos:R:3 gdb_60318=T pbc="F F F"
C        0.06650000       1.56180000       0.09560000
C        0.00140000       0.03780000       0.00920000
O        0.61100000      -0.57480000       1.14430000
C       -1.43770000      -0.47490000      -0.03190000
C       -1.50400000      -1.99880000      -0.11710000
C       -2.91020000      -2.53930000      -0.09730000
O       -3.91620000      -1.88150000      -0.01190000
C       -3.00180000      -4.01720000      -0.19490000
N       -3.06090000      -5.16920000      -0.27570000
H        1.10680000       1.90430000       0.13500000
H       -0.40220000       2.02730000      -0.77740000
H       -0.44370000       1.91510000       0.99700000
H        0.51680000      -0.28870000      -0.91100000
H        1.52230000      -0.27120000       1.19820000
H       -1.96070000      -0.13840000       0.86960000
H       -1.95970000      -0.02880000      -0.88420000
H       -1.01650000      -2.37990000      -1.02650000
H       -0.94990000      -2.45670000       0.71230000
