16
Properties=species:S:1:pos:R:3 gdb_17903=T pbc="F F F"
O        0.00090000       0.06370000      -0.00500000
C       -0.01500000       1.25650000       0.00380000
C       -1.18310000       2.27790000       0.02920000
C       -0.80260000       3.03420000       1.34440000
C        0.76220000       3.05520000       1.32230000
C        1.12550000       2.30900000      -0.00350000
C        0.61540000       3.12940000      -1.16590000
C       -0.72840000       3.11130000      -1.14690000
H       -2.19140000       1.87050000      -0.00410000
H       -1.23290000       4.03730000       1.36080000
H       -1.17920000       2.49040000       2.21570000
H        1.16560000       4.06950000       1.32680000
H        1.17780000       2.52210000       2.18230000
H        2.14310000       1.92890000      -0.06550000
H        1.25260000       3.64400000      -1.87390000
H       -1.39890000       3.60820000      -1.83640000
