18
Properties=species:S:1:pos:R:3 gdb_60907=T pbc="F F F"
O       -0.50330000       1.19790000       0.23500000
C       -0.05300000      -0.10010000      -0.02100000
C        0.87780000      -0.11260000      -1.22180000
O        1.20490000       0.90240000      -1.78460000
C        0.67270000      -0.70080000       1.17200000
C        0.72240000      -2.18390000       1.58690000
C        0.69360000      -1.72700000       3.08470000
C        0.64400000      -0.26690000       2.60880000
N        1.78150000       0.04910000       1.75090000
H        0.04390000       1.77780000      -0.31720000
H       -0.90930000      -0.75520000      -0.25860000
H        1.25970000      -1.10570000      -1.53680000
H       -0.17710000      -2.74000000       1.31000000
H        1.59830000      -2.74680000       1.24700000
H       -0.21670000      -2.04820000       3.59540000
H        1.55570000      -1.99130000       3.70600000
H        0.10900000       0.55800000       3.06250000
H        2.59670000      -0.53090000       1.94480000
