19
Properties=species:S:1:pos:R:3 gdb_111132=T pbc="F F F"
O       -0.00550000       1.40250000      -0.30190000
C        0.04310000       0.02750000       0.06600000
C       -1.38850000      -0.47170000       0.10300000
C       -2.01930000      -0.71870000      -1.28950000
O       -1.23070000      -1.96730000      -1.35370000
C       -1.54530000      -2.01150000       0.08660000
C       -3.06380000      -2.28130000       0.05590000
C       -4.03880000      -1.16990000       0.35430000
C       -3.43310000      -1.27270000      -1.02280000
H        0.89770000       1.71710000      -0.40070000
H        0.62480000      -0.56360000      -0.65130000
H        0.49750000      -0.09730000       1.06300000
H       -1.94710000       0.11360000       0.83400000
H       -1.86110000      -0.05230000      -2.13570000
H       -0.90640000      -2.68820000       0.65520000
H       -3.40140000      -3.31000000       0.02730000
H       -5.07850000      -1.47720000       0.42440000
H       -3.79340000      -0.35850000       1.02810000
H       -4.05230000      -1.53490000      -1.87180000
