18
Properties=species:S:1:pos:R:3 gdb_95997=T pbc="F F F"
O        0.29590000       0.79390000      -0.88180000
C        0.00820000      -0.41770000      -0.22090000
C        0.59940000      -0.51620000       1.21490000
N       -0.58590000      -0.43980000       2.08420000
H       -0.40240000      -0.72380000       3.04000000
H       -1.48300000       1.06010000       1.50740000
C       -1.58670000      -1.28270000       1.40930000
C       -1.52780000      -0.71420000      -0.02270000
C       -2.34160000       0.57650000      -0.13290000
O       -3.14950000       0.79500000      -0.99070000
O       -2.04740000       1.49740000       0.81910000
H       -0.13340000       1.51810000      -0.40830000
H        0.44450000      -1.18980000      -0.85780000
H        1.13710000      -1.46890000       1.33770000
H        1.29690000       0.30160000       1.41030000
H       -1.31420000      -2.34980000       1.40780000
H       -2.56760000      -1.17890000       1.88120000
H       -1.91150000      -1.40360000      -0.77270000
