21
Properties=species:S:1:pos:R:3 gdb_112456=T pbc="F F F"
C       -0.17660000       1.57930000      -0.03520000
C       -0.01710000       0.05720000       0.02350000
C        0.81790000      -0.45070000       1.21770000
C        0.66370000      -1.97970000       1.37920000
C        1.61860000      -2.54280000       2.41510000
O        1.25540000      -3.22170000       3.34640000
C        3.08590000      -2.19330000       2.19000000
C        3.27950000      -0.86040000       1.51580000
C        2.27860000      -0.08250000       1.10510000
H        0.78370000       2.09230000      -0.14740000
H       -0.80290000       1.87200000      -0.88340000
H       -0.65100000       1.96070000       0.87580000
H       -1.01170000      -0.40200000       0.08190000
H        0.43590000      -0.30890000      -0.90730000
H        0.40950000       0.02780000       2.12240000
H       -0.35740000      -2.25730000       1.65150000
H        0.90270000      -2.45050000       0.41440000
H        3.60060000      -2.23910000       3.15650000
H        3.53090000      -2.99640000       1.58150000
H        4.30720000      -0.52690000       1.39320000
H        2.51040000       0.88100000       0.65900000
