18
Properties=species:S:1:pos:R:3 gdb_83566=T pbc="F F F"
O        0.07950000       1.31410000      -0.12410000
C       -0.00040000      -0.06820000       0.07000000
C        0.00510000      -0.67960000       1.51700000
C       -1.04050000       0.18990000       2.24230000
C       -2.15370000       0.19120000       1.13810000
C       -1.42960000      -0.67060000       0.08240000
N       -0.85690000      -1.74670000       0.94210000
C       -0.45210000      -2.99180000       0.56830000
O        0.47410000      -3.60340000       1.05870000
H        1.00620000       1.57290000      -0.13890000
H        0.66190000      -0.63510000      -0.59470000
H        0.90880000      -0.99860000       2.03060000
H       -1.36840000      -0.26900000       3.17630000
H       -0.65700000       1.19090000       2.44700000
H       -3.07980000      -0.28130000       1.47000000
H       -2.37310000       1.19090000       0.76050000
H       -1.95770000      -0.96370000      -0.82410000
H       -1.12060000      -3.42160000      -0.20620000
