19
Properties=species:S:1:pos:R:3 gdb_31738=T pbc="F F F"
C        0.18160000       1.36450000       0.19050000
N       -0.08730000      -0.03840000      -0.04700000
C        0.54480000      -0.64350000      -1.12400000
C        1.12560000      -0.07210000      -2.22590000
N        1.56570000      -1.16420000      -2.99470000
C        1.21760000      -2.28950000      -2.32090000
N        1.42860000      -3.56500000      -2.81160000
C        2.57390000      -3.82300000      -3.66720000
N        0.61530000      -2.02170000      -1.18060000
H        1.25530000       1.60000000       0.28470000
H       -0.21720000       1.96280000      -0.63730000
H       -0.32910000       1.68290000       1.10250000
H       -0.04510000      -0.62110000       0.77690000
H        1.29700000       0.94350000      -2.53250000
H        1.96080000      -1.11380000      -3.91630000
H        1.28790000      -4.24490000      -2.07830000
H        3.53380000      -3.49740000      -3.23700000
H        2.62820000      -4.89480000      -3.86950000
H        2.44780000      -3.32430000      -4.63570000
