13
Properties=species:S:1:pos:R:3 gdb_4650=T pbc="F F F"
N        0.10350000       1.40100000       0.13880000
C       -0.02730000       0.00520000       0.04740000
C       -1.11190000      -0.83640000       0.04120000
C       -0.60290000      -2.17750000       0.01180000
C        0.77660000      -2.09960000      -0.00950000
N        1.10830000      -0.77520000       0.01940000
C       -1.36310000      -3.37150000      -0.01020000
N       -1.99520000      -4.34280000      -0.02860000
H        0.38280000       1.82720000      -0.74010000
H       -0.76730000       1.82690000       0.43000000
H       -2.15080000      -0.54860000       0.04030000
H        1.52130000      -2.87650000      -0.04370000
H        2.04080000      -0.40520000       0.09470000
