22
Properties=species:S:1:pos:R:3 gdb_58953=T pbc="F F F"
C        0.61850000       0.98350000      -0.59110000
C       -0.03650000      -0.16890000       0.17850000
O       -0.15670000      -1.33190000      -0.63740000
C        0.76830000      -0.55570000       1.38890000
C        1.98990000      -1.47940000       1.34770000
C        1.38860000      -2.17120000       2.59400000
N        0.15930000      -1.30010000       2.57580000
C        0.61180000       0.10680000       2.70250000
C        1.72610000       0.58490000       3.60530000
H        1.62310000       0.70200000      -0.92190000
H        0.02840000       1.24230000      -1.47780000
H        0.69400000       1.87960000       0.03280000
H       -1.03080000       0.14810000       0.53250000
H       -0.63790000      -1.08700000      -1.43380000
H        1.97810000      -2.11860000       0.46550000
H        2.97410000      -1.00950000       1.43790000
H        1.09310000      -3.20690000       2.41830000
H        1.96000000      -2.12300000       3.52600000
H       -0.26930000       0.74550000       2.76150000
H        2.66460000       0.04550000       3.46240000
H        1.92470000       1.64510000       3.41580000
H        1.43620000       0.48580000       4.65730000
