22
Properties=species:S:1:pos:R:3 gdb_114322=T pbc="F F F"
C       -0.53650000       1.21040000      -0.05450000
N       -0.07790000      -0.13790000       0.23490000
C        1.19190000      -0.67100000      -0.19660000
C        2.34960000       0.33670000      -0.05580000
C        2.05670000       0.41480000       1.47510000
C        1.90570000       1.74440000       2.19370000
O        3.20460000       2.31870000       2.28960000
C        0.84530000      -0.53500000       1.27750000
C        0.39670000      -1.54960000       2.29100000
H        0.25440000       1.95800000      -0.19950000
H       -1.13570000       1.18110000      -0.97110000
H       -1.18570000       1.55100000       0.75840000
H        1.19700000      -1.55560000      -0.82640000
H        3.32570000      -0.09910000      -0.27570000
H        2.25570000       1.26630000      -0.62550000
H        2.83870000      -0.13860000       2.00710000
H        1.22050000       2.41620000       1.65960000
H        1.47460000       1.56760000       3.19380000
H        3.12130000       3.18360000       2.70170000
H       -0.12690000      -1.07040000       3.12760000
H       -0.29290000      -2.26280000       1.83250000
H        1.24960000      -2.09780000       2.70580000
