16
Properties=species:S:1:pos:R:3 gdb_24242=T pbc="F F F"
C        0.00570000       1.48800000       0.10320000
C        1.30390000       0.73660000       0.03650000
O        1.99720000       0.41850000       1.25280000
C        1.14110000      -0.41920000       1.89190000
C       -0.00850000      -0.77270000       1.24670000
C       -0.70520000      -1.65380000       2.12600000
C        0.06620000      -1.77960000       3.26140000
N        1.21350000      -0.99590000       3.11580000
C       -0.01970000      -0.03160000      -0.04150000
H       -0.31160000       1.91010000       1.05020000
H       -0.23200000       2.08570000      -0.77110000
H        1.99390000       0.87360000      -0.78570000
H       -1.65390000      -2.14170000       1.96290000
H       -0.08580000      -2.35500000       4.15920000
H        1.96350000      -0.91360000       3.77870000
H       -0.37150000      -0.47710000      -0.96560000
