21
Properties=species:S:1:pos:R:3 gdb_107202=T pbc="F F F"
C       -0.36020000       1.46810000       0.13420000
C        0.20240000       0.06100000      -0.10350000
C        0.91010000      -0.50180000       1.10990000
C        2.23390000       0.14110000       1.56060000
C        3.04280000      -0.96470000       2.23150000
N        2.41810000      -1.53460000       3.44310000
C        2.28030000      -2.23800000       2.14690000
C        0.95810000      -1.95830000       1.45550000
N        0.02580000      -1.05860000       2.14740000
H        0.43530000       2.18920000       0.35180000
H       -0.90330000       1.83020000      -0.74420000
H       -1.05090000       1.46180000       0.98310000
H       -0.61730000      -0.61700000      -0.36370000
H        0.89340000       0.07210000      -0.95710000
H        2.77900000       0.50370000       0.68110000
H        2.08060000       0.99900000       2.22450000
H        4.12690000      -0.93370000       2.18120000
H        3.12470000      -1.99340000       4.01240000
H        2.75850000      -3.20210000       2.01670000
H        0.51510000      -2.73830000       0.84350000
H        0.40160000      -0.88010000       3.07910000
