21
Properties=species:S:1:pos:R:3 gdb_86363=T pbc="F F F"
C       -0.78600000       1.35160000      -0.00360000
C       -0.00390000       0.04750000      -0.05160000
C        1.34780000       0.01030000      -0.81730000
C        1.88930000      -0.94730000       0.26730000
O        3.23650000      -0.85540000       0.67120000
C        0.73570000      -0.48910000       1.22540000
C        1.13210000       0.57470000       2.25980000
C        1.85700000      -0.03440000       3.44560000
O        1.49570000       0.08550000       4.58910000
H       -0.17070000       2.18200000       0.35750000
H       -1.14590000       1.61970000      -1.00290000
H       -1.65990000       1.27280000       0.65220000
H       -0.65480000      -0.74800000      -0.42930000
H        1.35430000      -0.32910000      -1.85560000
H        1.85340000       0.98340000      -0.77050000
H        1.74110000      -1.99260000      -0.01820000
H        3.49380000       0.07190000       0.66310000
H        0.21690000      -1.30350000       1.74030000
H        1.79780000       1.32530000       1.80840000
H        0.25350000       1.10360000       2.64050000
H        2.76170000      -0.62220000       3.18210000
