16
Properties=species:S:1:pos:R:3 gdb_4050=T pbc="F F F"
N        0.04690000       1.34880000       0.12680000
C       -0.04050000      -0.01650000       0.03480000
C       -1.15470000      -0.78540000       0.02470000
C       -0.79580000      -2.18720000      -0.00630000
C        0.72300000      -2.30680000      -0.01990000
C        1.22560000      -0.84220000       0.00880000
N       -1.53010000      -3.23650000      -0.02680000
O       -2.90570000      -2.88520000      -0.00820000
H        0.89130000       1.77910000      -0.21660000
H       -0.78760000       1.87980000      -0.06960000
H       -2.17590000      -0.43350000       0.03880000
H        1.07630000      -2.87540000       0.84430000
H        1.06380000      -2.83950000      -0.91160000
H        1.83590000      -0.59190000      -0.86890000
H        1.84510000      -0.62600000       0.88740000
H       -3.32670000      -3.75000000      -0.02360000
