18
Properties=species:S:1:pos:R:3 gdb_83439=T pbc="F F F"
O       -0.27230000       1.54100000      -0.02280000
C       -0.20750000       0.15520000      -0.12240000
C       -0.36740000      -0.72210000       1.07410000
O       -1.24460000      -0.06990000       2.00020000
C       -2.34220000      -0.16160000       1.04330000
C       -1.42970000      -0.75130000      -0.03170000
C       -1.85970000      -1.77410000      -1.02000000
C       -2.40150000      -1.35060000      -2.34230000
N       -1.10730000      -2.04310000      -2.25580000
H       -0.46170000       1.73180000       0.90650000
H        0.54620000      -0.17220000      -0.83450000
H        0.33890000      -1.44600000       1.46590000
H       -3.10050000      -0.86220000       1.40760000
H       -2.79650000       0.81290000       0.83390000
H       -2.27370000      -2.68000000      -0.57890000
H       -3.19900000      -1.91980000      -2.81120000
H       -2.40550000      -0.28620000      -2.56230000
H       -0.35780000      -1.36420000      -2.36290000
