11
Properties=species:S:1:pos:R:3 gdb_206=T pbc="F F F"
N        0.01030000       1.40420000       0.16850000
C       -0.04210000       0.01130000       0.05530000
C       -1.13730000      -0.82030000       0.02960000
N       -0.60550000      -2.10120000      -0.01980000
C        0.74330000      -1.98060000      -0.01790000
N        1.12030000      -0.71930000       0.02380000
H        0.92060000       1.74560000      -0.11260000
H       -0.71570000       1.87890000      -0.35110000
H       -2.19800000      -0.63960000       0.05030000
H       -1.13060000      -2.95790000      -0.05270000
H        1.40310000      -2.83440000      -0.05040000
