21
Properties=species:S:1:pos:R:3 gdb_112759=T pbc="F F F"
C        0.22600000       1.37080000      -0.17060000
C       -0.01060000      -0.14150000      -0.07020000
N       -1.40040000      -0.50850000       0.06140000
C       -2.35490000      -0.30340000       1.15020000
C       -3.47090000      -0.77810000       0.15750000
O       -4.60840000       0.01930000      -0.02610000
C       -2.35020000      -0.74410000      -0.91290000
N       -2.21300000      -0.81870000      -2.16750000
C       -3.38050000      -1.13630000      -2.97290000
H        1.29530000       1.58430000      -0.26780000
H       -0.28650000       1.78090000      -1.04550000
H       -0.13910000       1.89190000       0.72060000
H        0.35680000      -0.63730000      -0.97390000
H        0.54480000      -0.55540000       0.78100000
H       -2.17840000      -0.92040000       2.03870000
H       -2.49150000       0.74300000       1.45680000
H       -3.83070000      -1.78510000       0.38070000
H       -4.33040000       0.86330000      -0.39880000
H       -4.32060000      -1.19150000      -2.40720000
H       -3.50150000      -0.38160000      -3.75990000
H       -3.22900000      -2.09570000      -3.48370000
