18
Properties=species:S:1:pos:R:3 gdb_94607=T pbc="F F F"
O        0.20870000       1.45750000       0.05720000
C        0.11540000       0.05680000       0.04210000
C       -0.01950000      -0.53820000       1.45710000
N       -1.28000000      -1.24700000       1.07430000
H       -1.14850000      -2.25060000       1.01300000
H       -3.04660000      -1.03800000       1.29460000
C       -1.27290000      -0.59730000      -0.28440000
C       -2.43690000       0.37780000      -0.47410000
C       -3.82130000      -0.23700000      -0.25060000
O       -3.94170000      -0.95250000       0.87890000
O       -4.74530000      -0.07130000      -1.00200000
H        0.35460000       1.77240000      -0.84060000
H        0.92940000      -0.39210000      -0.54050000
H        0.79060000      -1.19190000       1.78930000
H       -0.19500000       0.22780000       2.21750000
H       -1.24780000      -1.32350000      -1.10320000
H       -2.31720000       1.21010000       0.22910000
H       -2.42360000       0.79800000      -1.48190000
