15
Properties=species:S:1:pos:R:3 gdb_2668=T pbc="F F F"
C       -0.02460000       1.56930000       0.00140000
C       -0.00300000       0.03990000      -0.00520000
C        0.73210000      -0.53810000       1.22380000
C        0.76710000      -1.99180000       1.24180000
C        0.78580000      -3.20230000       1.23940000
C        0.80660000      -4.56290000       1.23610000
C        0.82510000      -5.77050000       1.23290000
H        0.99030000       1.98210000      -0.00740000
H       -0.54930000       1.95800000      -0.87630000
H       -0.53240000       1.95660000       0.89160000
H       -1.02520000      -0.35340000      -0.02230000
H        0.48560000      -0.32820000      -0.91390000
H        1.75950000      -0.14960000       1.25010000
H        0.24920000      -0.17490000       2.14150000
H        0.84140000      -6.83190000       1.22960000
