17
Properties=species:S:1:pos:R:3 gdb_43873=T pbc="F F F"
O        0.06880000       0.01460000      -0.34410000
C        0.00770000       1.16700000      -0.03050000
C       -1.14480000       2.11510000       0.33800000
C       -0.07900000       3.10930000       0.87000000
C        1.05920000       2.25420000       0.24840000
O       -0.16070000       4.48800000       0.43370000
C        0.03450000       4.93780000       1.77990000
C       -1.09860000       4.50180000       2.65060000
C        0.02520000       3.53370000       2.33040000
H       -1.64750000       2.50580000      -0.55350000
H       -1.89660000       1.74030000       1.03700000
H        1.90440000       1.97680000       0.88340000
H        1.43740000       2.70520000      -0.67530000
H        0.68100000       5.79140000       1.94240000
H       -1.08560000       4.88250000       3.66730000
H       -2.08610000       4.37070000       2.21690000
H        0.64170000       3.06010000       3.08230000
