17
Properties=species:S:1:pos:R:3 gdb_67570=T pbc="F F F"
C        0.01650000       1.51620000      -0.02770000
C        0.03720000       0.00930000      -0.04920000
C        0.42620000      -0.75710000      -1.30720000
O        1.61490000      -1.55810000      -1.15770000
C        0.33190000      -2.15680000      -0.88830000
C       -0.10410000      -2.03040000       0.55910000
C        0.61400000      -0.79350000       1.16440000
O       -0.56570000      -0.46770000       1.98770000
C       -1.10090000      -0.82270000       0.67630000
H        1.00980000       1.92530000      -0.24040000
H       -0.67450000       1.91590000      -0.77840000
H       -0.30100000       1.86830000       0.95730000
H        0.21730000      -0.39180000      -2.30770000
H        0.03970000      -2.97830000      -1.53330000
H       -0.26350000      -2.90270000       1.18900000
H        1.59620000      -0.72520000       1.62910000
H       -2.18440000      -0.79160000       0.54500000
