22
Properties=species:S:1:pos:R:3 gdb_60964=T pbc="F F F"
C       -1.44450000      -0.43330000      -0.13930000
C        0.02700000       0.00530000      -0.06810000
C        0.05610000       1.52710000       0.00440000
O        0.26890000       2.25640000      -0.92830000
N        0.66390000      -0.52950000       1.11710000
C        2.12870000      -0.38590000       1.26840000
C        2.16810000      -1.78690000       1.93340000
C        2.18230000      -1.77150000       3.45710000
C        0.76540000      -1.99360000       1.29940000
H       -1.99560000      -0.08160000       0.73860000
H       -1.91770000      -0.03430000      -1.04010000
H       -1.51530000      -1.52440000      -0.17010000
H        0.54090000      -0.29220000      -1.00140000
H       -0.17080000       1.92030000       1.02240000
H        2.66250000      -0.36100000       0.30480000
H        2.44820000       0.47220000       1.87110000
H        2.94330000      -2.45240000       1.54820000
H        1.40640000      -1.10340000       3.84500000
H        2.00150000      -2.77260000       3.86300000
H        3.14890000      -1.42580000       3.83900000
H       -0.01480000      -2.43680000       1.92850000
H        0.81600000      -2.54970000       0.34930000
