21
Properties=species:S:1:pos:R:3 gdb_101638=T pbc="F F F"
C       -0.03720000       1.56830000      -0.10060000
C        0.02080000       0.04040000      -0.02630000
C        0.71450000      -0.47810000       1.23900000
O        0.07660000       0.02100000       2.42170000
C        0.83250000      -2.00910000       1.24710000
C        1.66470000      -2.56110000       2.43640000
N        1.07540000      -2.43720000       3.77300000
C        1.99290000      -3.97410000       2.18660000
N        2.22350000      -5.08350000       1.96070000
H        0.96970000       1.99730000      -0.14640000
H       -0.58190000       1.89780000      -0.98990000
H       -0.53250000       1.98330000       0.78090000
H       -0.99600000      -0.37820000      -0.06360000
H        0.54390000      -0.36050000      -0.90260000
H        1.72540000      -0.05060000       1.28650000
H       -0.85520000      -0.22470000       2.37630000
H       -0.16670000      -2.46500000       1.26730000
H        1.30310000      -2.32470000       0.30840000
H        2.61930000      -2.01650000       2.45360000
H        0.76560000      -1.47440000       3.87780000
H        0.24610000      -3.02220000       3.83270000
