20
Properties=species:S:1:pos:R:3 gdb_85959=T pbc="F F F"
C        0.04030000       1.69040000       0.12920000
C        0.03170000       0.17150000       0.07620000
C        0.95490000      -0.54800000      -0.94610000
C        1.31370000      -1.59870000       0.14780000
N        2.69670000      -2.02920000       0.36290000
H        3.24100000      -1.29270000       0.79900000
H        1.87130000      -3.66740000       0.86750000
H        3.14700000      -2.24880000      -0.52200000
C        0.74230000      -0.61090000       1.21560000
C        0.41550000      -2.84560000       0.06560000
O        0.96670000      -3.94260000       0.60280000
O       -0.69430000      -2.83670000      -0.40060000
H        1.05960000       2.07820000       0.24340000
H       -0.37840000       2.12030000      -0.78730000
H       -0.55400000       2.06270000       0.97120000
H       -0.98700000      -0.20450000      -0.04010000
H        0.49210000      -0.93160000      -1.85640000
H        1.83270000       0.05590000      -1.20070000
H        1.55460000      -0.02570000       1.66300000
H        0.13150000      -1.03240000       2.01660000
