16
Properties=species:S:1:pos:R:3 gdb_32266=T pbc="F F F"
C       -0.02870000       1.37820000       0.03500000
O       -0.00770000      -0.04870000      -0.03360000
C        0.60480000      -0.60090000      -1.10000000
N        1.15370000       0.15180000      -2.02990000
C        1.74930000      -0.48870000      -3.04850000
N        1.84450000      -1.79900000      -3.20160000
C        1.27970000      -2.54880000      -2.24180000
C        0.62240000      -2.01450000      -1.14220000
N       -0.02610000      -2.76350000      -0.16990000
H        0.98640000       1.78360000       0.06340000
H       -0.54840000       1.80180000      -0.82840000
H       -0.56140000       1.61860000       0.95580000
H        2.19680000       0.13830000      -3.81450000
H        1.35350000      -3.62910000      -2.35670000
H        0.32820000      -3.70030000      -0.04250000
H       -0.15860000      -2.27390000       0.70290000
