23
Properties=species:S:1:pos:R:3 gdb_81372=T pbc="F F F"
C       -0.08380000       1.53590000      -0.06690000
C        0.04600000       0.01670000      -0.10170000
C        1.28870000      -0.54840000      -0.84710000
C        2.07510000      -0.45440000       0.48970000
C        0.68600000      -0.62890000       1.16540000
C        0.37810000      -2.13010000       1.22120000
C       -1.08140000      -2.46480000       1.52790000
O        0.80420000      -2.79670000       0.02440000
C        1.02730000      -2.02290000      -1.15130000
H        0.84480000       2.02570000       0.24340000
H       -0.34870000       1.92740000      -1.05550000
H       -0.86850000       1.84380000       0.63310000
H       -0.90900000      -0.41490000      -0.42240000
H        1.65740000      -0.02310000      -1.73310000
H        2.82860000      -1.22150000       0.68780000
H        2.50850000       0.53260000       0.65680000
H        0.50010000      -0.16100000       2.13670000
H        0.99870000      -2.56390000       2.01970000
H       -1.76270000      -2.04440000       0.78260000
H       -1.21760000      -3.54960000       1.53600000
H       -1.36620000      -2.07480000       2.51150000
H        0.16700000      -2.11230000      -1.83480000
H        1.89390000      -2.47520000      -1.65040000
