18
Properties=species:S:1:pos:R:3 gdb_99810=T pbc="F F F"
C       -0.39910000       1.57110000      -0.07670000
C        0.00090000       0.08420000      -0.03720000
C        0.88980000      -0.17300000       1.21600000
O        1.14150000      -1.54720000       1.47030000
C       -1.18350000      -0.76990000       0.06970000
C       -2.13330000      -1.49620000       0.20940000
C        0.75260000      -0.26690000      -1.36720000
N        1.49190000      -1.40160000      -1.31660000
O        0.65520000       0.43310000      -2.35450000
H        0.49540000       2.20060000      -0.05390000
H       -0.93530000       1.78700000      -1.00000000
H       -1.03060000       1.81770000       0.78040000
H        1.86620000       0.29740000       1.07010000
H        0.40710000       0.29800000       2.08260000
H        0.27960000      -1.97220000       1.57810000
H       -2.98980000      -2.11920000       0.29340000
H        1.61120000      -1.89910000      -0.44490000
H        2.02160000      -1.65390000      -2.13460000
