23
Properties=species:S:1:pos:R:3 gdb_76652=T pbc="F F F"
C       -0.22940000       1.02850000      -1.81310000
C       -0.01800000      -0.19740000      -0.94980000
C        1.34310000      -0.63280000      -0.44150000
C        2.62190000       0.12160000      -0.74300000
C        0.29660000      -0.12730000       0.53170000
C        0.43770000       1.17940000       1.27740000
C       -0.84560000       1.61700000       1.98270000
C       -0.82470000       3.00880000       2.59340000
O       -1.81690000       0.90140000       2.06170000
H        0.46240000       1.84230000      -1.58080000
H       -0.09270000       0.78550000      -2.87280000
H       -1.24690000       1.41730000      -1.69300000
H       -0.68190000      -1.01420000      -1.22230000
H        1.49280000      -1.71000000      -0.41720000
H        2.48140000       1.20490000      -0.77310000
H        3.38510000      -0.08620000       0.01570000
H        3.03310000      -0.18020000      -1.71270000
H       -0.19160000      -0.88520000       1.13610000
H        1.21140000       1.10210000       2.05760000
H        0.77170000       2.00300000       0.63710000
H        0.07450000       3.15940000       3.20030000
H       -0.79910000       3.76110000       1.79590000
H       -1.71690000       3.16210000       3.20150000
