19
Properties=species:S:1:pos:R:3 gdb_121705=T pbc="F F F"
C        0.14750000       1.45980000       0.02570000
C        0.04050000      -0.05470000       0.00830000
O       -1.33130000      -0.40410000       0.01920000
C       -1.54890000      -1.77690000       0.00480000
C       -3.06150000      -2.04900000       0.01830000
O       -3.89720000      -1.18920000       0.03830000
N       -3.32170000      -3.42270000       0.00410000
C       -4.54680000      -4.08700000       0.00960000
N       -5.67540000      -3.51370000       0.02940000
H        1.19760000       1.76660000       0.01780000
H       -0.34870000       1.88790000      -0.84950000
H       -0.32900000       1.86610000       0.92190000
H        0.53020000      -0.47020000      -0.88910000
H        0.54980000      -0.49190000       0.88420000
H       -1.10940000      -2.25230000      -0.89260000
H       -1.08970000      -2.27400000       0.88030000
H       -2.51430000      -4.02670000      -0.01240000
H       -4.38520000      -5.17330000      -0.00560000
H       -6.41400000      -4.21570000       0.02900000
