17
Properties=species:S:1:pos:R:3 gdb_77038=T pbc="F F F"
C       -1.89020000       0.62510000      -0.72680000
N       -0.82920000      -0.36040000      -0.52110000
C        0.37580000      -0.35490000      -1.29620000
C        0.69700000       0.68770000      -2.36330000
C       -0.04720000       0.43720000      -3.59740000
N       -0.64250000       0.22990000      -4.56580000
C        0.42020000      -0.01820000       0.18590000
C        0.74760000       1.35490000       0.65180000
O        0.43360000       2.39230000       0.10800000
H       -1.54810000       1.65890000      -0.83330000
H       -2.44470000       0.33110000      -1.62200000
H       -2.56810000       0.57230000       0.12940000
H        0.73220000      -1.35180000      -1.55390000
H        0.48450000       1.69740000      -2.00430000
H        1.76850000       0.64590000      -2.58990000
H        0.76200000      -0.79450000       0.86780000
H        1.32730000       1.37120000       1.60000000
