21
Properties=species:S:1:pos:R:3 gdb_119380=T pbc="F F F"
C       -0.16110000       1.46970000       0.04510000
C       -0.03180000      -0.04350000       0.04260000
O       -1.33890000      -0.60070000       0.00700000
C       -1.38050000      -1.97250000       0.01370000
C       -0.88340000      -2.97170000      -1.08470000
C       -1.55300000      -3.83820000       0.01480000
C       -0.81650000      -2.97680000       1.08120000
C       -2.69730000      -2.77090000       0.03120000
O       -3.48760000      -2.60930000       1.17900000
H        0.82820000       1.93620000       0.07470000
H       -0.68060000       1.81210000      -0.85440000
H       -0.73040000       1.80360000       0.91700000
H        0.54680000      -0.38260000      -0.83040000
H        0.49900000      -0.38960000       0.94240000
H       -1.38120000      -2.92380000      -2.05750000
H        0.19730000      -3.08740000      -1.18670000
H       -1.66210000      -4.92040000       0.01000000
H        0.26940000      -3.09250000       1.12130000
H       -1.26860000      -2.93370000       2.07090000
H       -3.29560000      -2.70810000      -0.88790000
H       -4.19070000      -3.26530000       1.15380000
