17
Properties=species:S:1:pos:R:3 gdb_25715=T pbc="F F F"
C       -0.00440000       1.53700000      -0.12750000
C       -0.00150000       0.02980000       0.05850000
O       -0.00050000      -0.48030000       1.16600000
C       -0.00020000      -0.78980000      -1.15520000
C        0.00200000      -2.15000000      -1.36850000
C        0.00290000      -3.23760000      -0.34090000
C        0.00260000      -2.31720000      -2.78820000
C        0.00070000      -1.06680000      -3.32700000
O       -0.00100000      -0.12790000      -2.36170000
H        0.86930000       1.85760000      -0.70390000
H       -0.88760000       1.85440000      -0.69130000
H        0.00110000       2.01060000       0.85440000
H       -0.88400000      -3.87250000      -0.44860000
H        0.87700000      -3.88700000      -0.46530000
H        0.01480000      -2.81540000       0.66300000
H        0.00440000      -3.25010000      -3.33090000
H        0.00060000      -0.70020000      -4.34120000
