16
Properties=species:S:1:pos:R:3 gdb_64668=T pbc="F F F"
O       -0.30370000       1.44870000       0.27460000
C       -0.09910000       0.08020000       0.13540000
C        1.05970000      -0.40500000       0.98730000
C        2.34490000       0.14210000       0.54630000
N        3.36130000       0.55810000       0.18890000
C       -1.26130000      -0.89510000      -0.01250000
C       -2.32900000      -0.22040000      -0.86200000
O       -1.34660000       0.13710000      -1.88550000
C       -0.33160000      -0.58570000      -1.18220000
H       -0.55520000       1.77950000      -0.59900000
H        0.88700000      -0.10980000       2.02830000
H        1.11790000      -1.49840000       0.96620000
H       -1.38680000      -1.78830000       0.58550000
H       -3.06670000      -0.91160000      -1.27930000
H       -2.82400000       0.65930000      -0.43880000
H        0.37990000      -1.16360000      -1.76240000
