22
Properties=species:S:1:pos:R:3 gdb_108323=T pbc="F F F"
C        0.02780000       1.39100000      -0.03530000
O        0.07270000      -0.02180000      -0.04140000
C        0.65840000      -0.56340000       1.09800000
C        2.18430000      -0.40920000       1.31570000
C        2.26210000      -1.92330000       1.68260000
C        0.75850000      -2.10530000       1.27670000
N       -0.25280000      -2.04090000       2.33730000
C       -0.15070000      -2.83580000       3.53680000
C       -0.18550000      -0.56800000       2.41250000
H        1.03400000       1.83280000       0.00980000
H       -0.45160000       1.70120000      -0.96640000
H       -0.55890000       1.77900000       0.81050000
H        2.69100000      -0.19000000       0.37190000
H        2.51390000       0.30860000       2.07210000
H        2.96590000      -2.49910000       1.07820000
H        2.46940000      -2.12960000       2.73520000
H        0.55280000      -2.82700000       0.48200000
H        0.75500000      -2.63700000       4.14000000
H       -1.02010000      -2.64660000       4.17640000
H       -0.15440000      -3.89960000       3.27480000
H        0.35580000      -0.17200000       3.28710000
H       -1.16630000      -0.08100000       2.35440000
