17
Properties=species:S:1:pos:R:3 gdb_26278=T pbc="F F F"
C        0.19190000       1.33780000      -0.44350000
C        0.02540000      -0.05230000       0.18040000
O        0.53010000      -0.07840000       1.50860000
C       -1.40830000      -0.56100000       0.10870000
C       -2.08050000      -1.04930000       1.22830000
N       -3.33840000      -1.49860000       1.18580000
C       -3.92800000      -1.46770000      -0.00790000
N       -3.39170000      -1.04670000      -1.15540000
C       -2.13810000      -0.59940000      -1.08120000
H        1.23540000       1.65300000      -0.36180000
H       -0.08990000       1.34660000      -1.49990000
H       -0.43920000       2.06990000       0.07420000
H        0.66490000      -0.75860000      -0.36460000
H        0.14960000       0.66810000       1.98560000
H       -1.57740000      -1.08610000       2.18970000
H       -4.95300000      -1.82740000      -0.05500000
H       -1.69690000      -0.26190000      -2.01780000
