17
Properties=species:S:1:pos:R:3 gdb_75203=T pbc="F F F"
N        0.02020000       1.33200000      -0.07930000
C       -0.03220000      -0.03450000      -0.05720000
N       -1.10850000      -0.73360000      -0.07340000
C       -0.74610000      -2.15640000       0.00360000
C        0.78420000      -2.24440000      -0.01870000
O        1.44600000      -3.13020000       0.83020000
C        1.46400000      -1.71490000      -1.25680000
C        1.25100000      -0.81020000      -0.05580000
O        2.35730000      -0.31610000       0.62650000
H        0.87480000       1.73500000       0.27340000
H       -0.82800000       1.80870000       0.18710000
H       -1.12890000      -2.59260000       0.93570000
H       -1.20650000      -2.70970000      -0.82470000
H        1.65590000      -3.93200000       0.34080000
H        2.49950000      -2.01240000      -1.39000000
H        0.89120000      -1.55800000      -2.16530000
H        2.44670000      -0.82440000       1.44220000
