14
Properties=species:S:1:pos:R:3 gdb_69234=T pbc="F F F"
O       -0.01580000       1.39160000      -0.04230000
C       -0.05280000       0.01460000      -0.01590000
C       -0.42040000      -0.80700000      -1.22720000
C       -1.31320000      -0.81420000       0.00700000
C       -1.03460000      -1.92270000       0.95470000
N       -1.83870000      -2.78250000       1.38680000
O        0.31850000      -1.86530000       1.33380000
C        0.87820000      -0.67410000       0.93110000
O        1.93300000      -0.27450000       1.32500000
H        0.89190000       1.64670000       0.17220000
H       -0.79680000      -0.22130000      -2.05810000
H        0.13990000      -1.69650000      -1.49370000
H       -2.31050000      -0.40130000      -0.04260000
H       -1.38500000      -3.42270000       2.04010000
