22
Properties=species:S:1:pos:R:3 gdb_119928=T pbc="F F F"
C       -0.23800000       1.53910000       1.18760000
C       -0.52610000       0.03580000       1.17380000
C       -1.24420000      -0.40880000      -0.10180000
N       -1.42870000      -1.85860000      -0.10010000
C       -2.65670000      -2.45870000       0.40840000
C       -3.81750000      -1.67300000       0.97640000
C       -2.35510000      -2.47290000      -1.07020000
C       -3.12840000      -1.67510000      -1.98200000
C       -3.75610000      -1.02370000      -2.77610000
H        0.27510000       1.83570000       2.10740000
H        0.39830000       1.82910000       0.34400000
H       -1.16220000       2.12380000       1.11930000
H        0.40620000      -0.53250000       1.26650000
H       -1.13700000      -0.23250000       2.04510000
H       -2.18090000       0.15470000      -0.22060000
H       -0.62700000      -0.16700000      -0.97560000
H       -2.47040000      -3.39690000       0.93100000
H       -4.10170000      -0.82890000       0.34620000
H       -4.69060000      -2.32790000       1.06360000
H       -3.58300000      -1.29970000       1.97900000
H       -1.97330000      -3.39390000      -1.50750000
H       -4.31190000      -0.45090000      -3.47640000
