17
Properties=species:S:1:pos:R:3 gdb_26946=T pbc="F F F"
C       -1.01740000       1.04900000      -0.43550000
C       -0.20080000      -0.17780000      -0.19860000
C        0.63930000      -0.92380000      -0.99610000
N        1.18870000      -1.97360000      -0.28550000
C        0.68730000      -1.87850000       0.92080000
N       -0.15770000      -0.81380000       1.02760000
C        1.00570000      -0.75040000      -2.41820000
C        0.01890000      -0.67460000      -3.51120000
O        0.69480000       0.49800000      -3.05360000
H       -0.78290000       1.83660000       0.29110000
H       -0.80080000       1.43480000      -1.43170000
H       -2.09410000       0.84900000      -0.36420000
H        0.89720000      -2.53630000       1.75110000
H       -0.64600000      -0.51850000       1.85690000
H        1.98910000      -1.15030000      -2.66290000
H        0.29050000      -1.00800000      -4.51200000
H       -1.04150000      -0.72720000      -3.26950000
