17
Properties=species:S:1:pos:R:3 gdb_27289=T pbc="F F F"
O        0.13050000       1.37600000       0.01100000
C        0.11580000       0.02280000      -0.05400000
C        0.06930000      -0.75740000      -1.18160000
C       -0.01670000      -0.76240000      -2.67480000
C        0.35450000      -2.23870000      -3.00890000
C       -0.02400000      -3.05870000      -1.74890000
N        0.08110000      -2.05580000      -0.69890000
C        0.12600000      -2.00480000       0.65030000
N        0.15560000      -0.74750000       1.07340000
H        0.17930000       1.59410000       0.94960000
H       -1.02810000      -0.52200000      -3.02870000
H        0.66490000      -0.05470000      -3.15440000
H       -0.14530000      -2.61290000      -3.90490000
H        1.43340000      -2.31310000      -3.17260000
H       -1.04870000      -3.44590000      -1.80680000
H        0.64960000      -3.90040000      -1.56820000
H        0.14750000      -2.88090000       1.27950000
