16
Properties=species:S:1:pos:R:3 gdb_18489=T pbc="F F F"
N       -0.09870000      -1.08010000      -0.29980000
C       -0.06620000       0.05310000      -0.07420000
C        0.00620000       1.48470000       0.20690000
C        1.42870000       2.04040000       0.05810000
C        2.06880000       2.07450000      -1.38000000
C        2.17580000       3.59620000      -1.24810000
N        0.79110000       4.08900000      -1.04940000
C        1.56150000       3.57060000       0.10700000
H       -0.65640000       2.02200000      -0.47930000
H       -0.36580000       1.65960000       1.22360000
H        2.10210000       1.55640000       0.76880000
H        3.03410000       1.56680000      -1.41210000
H        1.44120000       1.72020000      -2.20130000
H        2.94150000       4.24810000      -1.64920000
H        0.83250000       5.10650000      -1.00460000
H        1.74330000       4.19020000       0.97670000
