13
Properties=species:S:1:pos:R:3 gdb_25053=T pbc="F F F"
O       -0.05720000      -0.06640000       0.00400000
C        0.03280000       1.12790000       0.00900000
O       -1.17840000       1.87000000       0.02870000
C       -1.20930000       3.20140000       0.03590000
C       -0.09390000       3.98170000       0.02510000
C        1.17280000       3.29470000       0.00480000
C        1.22950000       1.94360000      -0.00280000
C       -0.18280000       5.39850000       0.03350000
C       -0.23480000       6.60130000       0.04020000
H       -2.21880000       3.59540000       0.05130000
H        2.08170000       3.88660000      -0.00430000
H        2.16690000       1.40250000      -0.01800000
H       -0.28820000       7.66190000       0.04630000
