21
Properties=species:S:1:pos:R:3 gdb_120579=T pbc="F F F"
C        0.12380000       1.54950000      -0.17890000
C        0.20800000       0.02720000      -0.04790000
C        0.35670000      -0.43950000       1.40860000
C        0.42570000      -1.94370000       1.50850000
O        1.63430000      -2.58750000       1.09550000
C        1.24750000      -2.70910000       2.48060000
C        2.16860000      -2.05480000       3.49040000
C        0.77750000      -4.02330000       2.86640000
C        0.39650000      -5.10790000       3.21810000
H        1.02280000       2.03200000       0.22040000
H        0.02080000       1.85270000      -1.22520000
H       -0.73650000       1.94900000       0.37000000
H       -0.68850000      -0.43140000      -0.48500000
H        1.05920000      -0.35220000      -0.62520000
H        1.25040000       0.01530000       1.84640000
H       -0.50190000      -0.09130000       1.99890000
H       -0.47210000      -2.45470000       1.15250000
H        2.52800000      -1.09050000       3.13000000
H        1.65020000      -1.91190000       4.44340000
H        3.03420000      -2.69890000       3.67070000
H        0.05670000      -6.06860000       3.51710000
