19
Properties=species:S:1:pos:R:3 gdb_74357=T pbc="F F F"
C        0.08840000       1.48540000      -0.13470000
C       -0.01050000      -0.00210000      -0.04170000
C       -1.06760000      -0.76020000       0.23770000
C       -0.69480000      -2.21660000       0.21840000
C       -1.48260000      -3.05270000      -0.81260000
C       -1.01010000      -4.49010000      -0.86300000
O       -1.72840000      -5.44730000      -0.71950000
O        0.69850000      -2.22960000      -0.11070000
C        1.18170000      -0.89890000      -0.26180000
H        0.81460000       1.87920000       0.58740000
H        0.43510000       1.79740000      -1.12780000
H       -0.87470000       1.96490000       0.05570000
H       -2.07130000      -0.41490000       0.45310000
H       -0.82790000      -2.67840000       1.21100000
H       -2.55250000      -3.04310000      -0.58370000
H       -1.32590000      -2.60170000      -1.80130000
H        0.07950000      -4.60690000      -1.04360000
H        1.62240000      -0.77070000      -1.26320000
H        1.98380000      -0.70430000       0.46880000
