20
Properties=species:S:1:pos:R:3 gdb_40370=T pbc="F F F"
C       -0.10700000       1.44060000      -0.15590000
C        1.28530000       0.91160000       0.08050000
C        0.10870000      -0.03850000       0.06130000
C       -0.33280000      -0.73120000       1.30030000
C       -0.33990000      -2.22950000       1.46280000
C       -1.61930000      -1.45530000       1.64420000
N       -1.80830000      -0.68530000       2.93850000
C       -0.66020000      -0.90440000       3.84040000
C       -0.48670000      -0.02090000       2.66810000
H       -0.57660000       2.01620000       0.63400000
H       -0.37020000       1.77160000      -1.15460000
H        1.98250000       0.88770000      -0.74960000
H        1.74750000       1.11850000       1.04030000
H        0.02190000      -0.65660000      -0.82830000
H       -0.31230000      -2.76070000       0.51510000
H        0.17990000      -2.75670000       2.25540000
H       -2.51010000      -1.64290000       1.05770000
H       -0.80580000      -0.41200000       4.79820000
H       -0.18310000      -1.87410000       3.91600000
H       -0.39110000       1.05560000       2.77200000
