19
Properties=species:S:1:pos:R:3 gdb_64324=T pbc="F F F"
C        0.03790000       1.51920000       0.04190000
C       -0.06260000      -0.00240000      -0.00670000
C       -1.52640000      -0.45340000       0.10590000
C        0.60970000      -0.56950000      -1.26700000
C        0.97530000      -2.04300000      -1.17080000
O        1.14000000      -2.74380000      -2.13060000
O        1.20290000      -2.54180000       0.06970000
C        0.76420000      -1.83860000       1.24440000
O        0.72640000      -0.46390000       1.11100000
H        1.08660000       1.82610000       0.07260000
H       -0.43170000       1.96300000      -0.84070000
H       -0.46080000       1.90820000       0.93420000
H       -2.12420000       0.04510000      -0.66230000
H       -1.64920000      -1.53100000      -0.03860000
H       -1.93240000      -0.18420000       1.08520000
H       -0.00420000      -0.43850000      -2.16090000
H        1.55220000      -0.03620000      -1.43980000
H       -0.21390000      -2.25820000       1.51810000
H        1.49490000      -2.06920000       2.02240000
