16
Properties=species:S:1:pos:R:3 gdb_127859=T pbc="F F F"
C        0.03760000       1.41290000       0.03390000
N        0.02940000      -0.03930000       0.05220000
C       -1.10120000      -0.65650000       0.02710000
C       -2.44000000      -0.03680000      -0.02010000
N       -3.56930000      -0.66840000      -0.04470000
N       -3.52090000      -2.01470000      -0.02540000
C       -2.35740000      -2.73120000       0.01740000
O       -2.59120000      -4.06240000       0.02770000
C       -1.15840000      -2.10560000       0.04400000
H        1.07410000       1.76090000       0.06210000
H       -0.42210000       1.83650000      -0.87320000
H       -0.47800000       1.85950000       0.89890000
H       -2.53250000       1.04260000      -0.03710000
H       -4.40860000      -2.48920000      -0.04560000
H       -1.74690000      -4.52550000       0.05830000
H       -0.23180000      -2.66600000       0.07810000
