14
Properties=species:S:1:pos:R:3 gdb_123655=T pbc="F F F"
C        0.00450000       1.44530000       0.13430000
C        1.31190000       0.70480000      -0.03150000
N        2.11600000       0.44830000       1.12600000
C        1.50250000      -0.34050000       2.09060000
C        0.21880000      -0.74370000       1.46630000
N       -0.61570000      -1.53450000       2.05670000
N       -1.33310000      -2.23290000       2.59480000
O        1.93310000      -0.59560000       3.19260000
C        0.02790000      -0.07860000       0.15280000
H       -0.17420000       1.97030000       1.06610000
H       -0.41550000       1.91160000      -0.75060000
H        1.83030000       0.71830000      -0.98370000
H        2.88500000       1.03820000       1.40100000
H       -0.41670000      -0.62520000      -0.66990000
