19
Properties=species:S:1:pos:R:3 gdb_74977=T pbc="F F F"
C       -0.02130000       1.50160000       0.03720000
C       -0.00260000       0.00740000      -0.02660000
C       -0.02130000      -0.76110000      -1.11900000
C        0.00730000      -2.23550000      -0.79470000
O        1.19300000      -2.54790000      -0.07130000
C        1.28610000      -1.75790000       1.11650000
C        0.04240000      -0.84800000       1.22400000
C       -1.18010000      -1.79150000       1.18250000
O       -1.12940000      -2.57930000      -0.00940000
H        0.86630000       1.88850000       0.55390000
H       -0.05320000       1.94420000      -0.96220000
H       -0.89120000       1.86460000       0.59930000
H       -0.05350000      -0.40170000      -2.14130000
H       -0.00700000      -2.89260000      -1.66310000
H        1.33510000      -2.43460000       1.98000000
H        2.20970000      -1.16540000       1.08600000
H        0.05930000      -0.26870000       2.15040000
H       -1.16420000      -2.46880000       2.04670000
H       -2.11970000      -1.22430000       1.20210000
