16
Properties=species:S:1:pos:R:3 gdb_8093=T pbc="F F F"
C       -0.01350000       1.53550000       0.05290000
C        0.00830000       0.03560000       0.00900000
C       -1.25440000      -0.84550000      -0.08240000
C       -0.62660000      -1.75430000       0.99770000
O       -1.06850000      -2.64000000       1.67490000
C        0.64930000      -0.97430000       1.04910000
C        1.18540000      -0.77320000      -0.36440000
O        1.08180000      -1.74280000      -1.36290000
H        0.97500000       1.94340000       0.28580000
H       -0.32310000       1.94540000      -0.91560000
H       -0.71770000       1.90020000       0.80820000
H       -2.15150000      -0.35700000       0.30970000
H       -1.46820000      -1.29490000      -1.05350000
H        1.27550000      -0.81170000       1.91920000
H        2.12930000      -0.22410000      -0.36820000
H        1.63880000      -2.49000000      -1.11960000
