18
Properties=species:S:1:pos:R:3 gdb_93264=T pbc="F F F"
C        0.10970000       1.51110000       0.06770000
C       -0.05920000      -0.01680000      -0.07990000
N       -1.45090000      -0.45300000      -0.12900000
C        0.77810000      -0.57970000      -1.24110000
O        0.82410000       0.30670000      -2.34070000
C        2.14980000      -0.80610000      -0.57610000
O        1.86610000      -1.09280000       0.80490000
C        0.61190000      -0.68890000       1.12570000
O        0.13760000      -0.83990000       2.21450000
H        1.15890000       1.81830000       0.12620000
H       -0.33230000       2.01040000      -0.79820000
H       -0.39740000       1.84340000       0.97730000
H       -1.82150000      -0.44030000       0.81860000
H       -2.00010000       0.20310000      -0.67610000
H        0.33270000      -1.54130000      -1.52350000
H        1.07530000      -0.18920000      -3.12500000
H        2.70920000      -1.65180000      -0.98280000
H        2.76310000       0.09880000      -0.64780000
