12
Properties=species:S:1:pos:R:3 gdb_25172=T pbc="F F F"
N       -0.03090000       1.28130000       0.34600000
C       -0.04050000       0.06990000       0.00540000
O        1.13400000      -0.57740000      -0.42850000
C        1.11520000      -1.86850000      -0.78970000
N        0.10470000      -2.65250000      -0.79560000
C       -1.08980000      -2.09540000      -0.38300000
C       -1.21450000      -0.80060000       0.00990000
C       -2.46800000      -0.26970000       0.42770000
N       -3.50450000       0.12330000       0.76020000
H        0.89730000       1.69470000       0.26470000
H        2.10080000      -2.20610000      -1.09560000
H       -1.94810000      -2.75790000      -0.38710000
