17
Properties=species:S:1:pos:R:3 gdb_7893=T pbc="F F F"
C       -0.00560000       1.47540000       0.00960000
N       -0.01930000       0.03120000       0.00070000
C       -1.16630000      -0.78510000       0.00330000
C       -0.86370000      -2.08890000      -0.00630000
C       -1.80130000      -3.24940000      -0.00700000
C        0.64260000      -2.20080000      -0.01660000
C        1.12740000      -0.74330000      -0.01160000
O        2.26480000      -0.32390000      -0.01580000
H        1.04080000       1.78560000       0.00280000
H       -0.50760000       1.88620000      -0.87410000
H       -0.49270000       1.87540000       0.90650000
H       -2.14140000      -0.31650000       0.01240000
H       -2.84350000      -2.91640000       0.00140000
H       -1.65980000      -3.88480000      -0.89110000
H       -1.64880000      -3.89480000       0.86790000
H        1.04840000      -2.72620000       0.85640000
H        1.03710000      -2.71630000      -0.90050000
