19
Properties=species:S:1:pos:R:3 gdb_39224=T pbc="F F F"
C       -0.07290000       1.47030000       0.10080000
C        1.31560000       0.85410000       0.00640000
C        2.21230000       0.39330000       1.14960000
C        2.29370000      -1.16690000       1.12690000
C        0.86270000      -1.78110000       0.92330000
O       -0.07350000      -0.72230000       1.16710000
C        0.05240000      -0.00150000      -0.04310000
C        0.00890000      -1.05700000      -1.10840000
C        0.54050000      -2.13960000      -0.53770000
H       -0.44440000       1.81930000       1.05950000
H       -0.39700000       2.05970000      -0.75050000
H        1.81180000       1.00960000      -0.94770000
H        3.21690000       0.82020000       1.06790000
H        1.80730000       0.71740000       2.11120000
H        2.96560000      -1.49790000       0.32790000
H        2.72100000      -1.52410000       2.06890000
H        0.66110000      -2.58820000       1.63070000
H       -0.28440000      -0.90970000      -2.13850000
H        0.76900000      -3.09090000      -0.99890000
