15
Properties=species:S:1:pos:R:3 gdb_2018=T pbc="F F F"
O       -0.02040000       1.36920000       0.03590000
C       -0.00260000      -0.04430000      -0.01500000
C       -1.39660000      -0.59080000      -0.10680000
C       -2.53350000      -0.24670000      -1.10560000
C       -3.12420000      -1.02100000       0.09250000
C       -1.95460000      -2.03180000       0.02000000
O       -2.31030000      -0.18400000       1.00740000
H       -0.67910000       1.60750000       0.69950000
H        0.57310000      -0.33150000      -0.90150000
H        0.49470000      -0.48050000       0.86640000
H       -2.79960000       0.80870000      -1.15810000
H       -2.52040000      -0.73720000      -2.08220000
H       -4.16540000      -1.18770000       0.36640000
H       -1.89050000      -2.68590000      -0.85310000
H       -1.72080000      -2.53910000       0.95670000
