16
Properties=species:S:1:pos:R:3 gdb_133077=T pbc="F F F"
C        0.08110000       1.44520000       0.03370000
N       -0.04880000       0.01540000      -0.10640000
C       -1.23330000      -0.66280000      -0.04220000
N       -1.12720000      -2.00410000      -0.00320000
C       -2.25280000      -2.71330000       0.03570000
C       -3.53380000      -2.17130000       0.04190000
C       -3.60870000      -0.78470000       0.00800000
F       -4.80310000      -0.19150000       0.01710000
C       -2.47450000       0.00240000      -0.03230000
H        1.13920000       1.70890000      -0.01590000
H       -0.43100000       1.97490000      -0.77930000
H       -0.32110000       1.81830000       0.98710000
H        0.76250000      -0.56680000       0.02120000
H       -2.12770000      -3.79340000       0.06590000
H       -4.42500000      -2.78310000       0.07590000
H       -2.56070000       1.07990000      -0.05710000
