23
Properties=species:S:1:pos:R:3 gdb_103591=T pbc="F F F"
C        0.62770000       1.32760000       0.37250000
C       -0.09340000       0.02300000       0.05670000
C       -1.54870000       0.06140000       0.50500000
C        0.15710000      -0.56030000      -1.35860000
C        0.89300000      -1.70740000      -0.63300000
C        0.29660000      -3.10100000      -0.75240000
C        2.41660000      -1.72450000      -0.79660000
O        3.02040000      -2.38450000       0.29720000
O        0.59410000      -1.11470000       0.67030000
H        1.67350000       1.28820000       0.05640000
H        0.14560000       2.16840000      -0.13820000
H        0.60370000       1.52340000       1.44950000
H       -2.09060000       0.86350000      -0.00790000
H       -2.04950000      -0.88640000       0.29030000
H       -1.60950000       0.24190000       1.58320000
H       -0.74410000      -0.86140000      -1.89620000
H        0.77950000       0.05310000      -2.01440000
H        0.41400000      -3.47790000      -1.77460000
H        0.81240000      -3.78500000      -0.07310000
H       -0.76820000      -3.09430000      -0.50550000
H        2.70330000      -2.26770000      -1.70440000
H        2.78740000      -0.69160000      -0.89320000
H        2.63410000      -1.97390000       1.08250000
