12
Properties=species:S:1:pos:R:3 gdb_879=T pbc="F F F"
O        0.03410000       1.34090000       0.21150000
C        0.05930000      -0.00160000      -0.00960000
C        0.08160000      -0.78360000      -1.12950000
C        0.10230000      -2.15630000      -0.68010000
C        0.09120000      -2.12510000       0.68560000
O        0.10090000      -3.07700000       1.65800000
N        0.06480000      -0.81400000       1.10000000
H        0.03300000       1.78280000      -0.64250000
H        0.08340000      -0.43980000      -2.15200000
H        0.12270000      -3.03800000      -1.30130000
H        0.11460000      -3.93830000       1.23060000
H        0.05240000      -0.50150000       2.05510000
