18
Properties=species:S:1:pos:R:3 gdb_81300=T pbc="F F F"
C       -0.18060000       1.41360000       0.02500000
N        0.04730000      -0.02410000      -0.03920000
C        0.90240000      -0.48050000      -1.18840000
C        2.17910000      -0.31480000      -0.32920000
C        1.17490000      -0.50720000       0.83590000
C        0.94890000      -1.99840000       1.03300000
O        1.00330000      -2.57820000       2.07980000
O        0.70850000      -2.67820000      -0.12030000
C        0.58130000      -1.95600000      -1.36380000
H        0.72460000       2.03660000      -0.08110000
H       -0.88000000       1.69620000      -0.76820000
H       -0.64780000       1.65690000       0.98410000
H        0.79340000       0.06970000      -2.12700000
H        2.99100000      -1.03710000      -0.44680000
H        2.58170000       0.69800000      -0.36260000
H        1.31220000      -0.00780000       1.79430000
H       -0.45060000      -2.07900000      -1.70730000
H        1.25960000      -2.43490000      -2.07830000
