21
Properties=species:S:1:pos:R:3 gdb_106781=T pbc="F F F"
C       -1.00590000      -1.27230000      -0.43470000
O        0.08000000      -0.45020000      -0.04860000
C        0.73970000      -0.80960000       1.10540000
C        0.11870000      -1.37620000       2.36270000
C        1.26630000      -2.11870000       1.69380000
O        1.13350000      -3.41860000       1.23100000
C        2.59380000      -1.45080000       2.05090000
C        2.05460000      -0.10220000       1.44910000
C        2.83800000       0.40370000       0.24410000
H       -1.85730000      -1.17050000       0.25300000
H       -1.31490000      -0.93310000      -1.42580000
H       -0.71360000      -2.32820000      -0.48510000
H        0.23050000      -0.88800000       3.33100000
H       -0.83970000      -1.86400000       2.21330000
H        1.01560000      -4.00240000       1.98960000
H        2.87050000      -1.44490000       3.11150000
H        3.42630000      -1.84520000       1.46250000
H        1.93600000       0.69990000       2.18740000
H        2.96220000      -0.38600000      -0.50410000
H        2.32160000       1.23800000      -0.23890000
H        3.83300000       0.74420000       0.54990000
