14
Properties=species:S:1:pos:R:3 gdb_24410=T pbc="F F F"
C       -0.01560000       1.50950000       0.12980000
O        1.24950000       2.02740000      -0.34180000
C        2.24550000       1.20690000      -0.77240000
N        2.27380000      -0.06180000      -0.84450000
C        1.09720000      -0.67290000      -0.41170000
C        0.01390000       0.02480000       0.04720000
N       -0.92470000      -0.92280000       0.37040000
C       -0.35610000      -2.14080000       0.08880000
N        0.86260000      -2.02470000      -0.38430000
H       -0.15560000       1.88610000       1.15410000
H       -0.80130000       1.96480000      -0.49140000
H        3.09500000       1.81160000      -1.07700000
H       -1.84830000      -0.76820000       0.74060000
H       -0.88730000      -3.06600000       0.25310000
