23
Properties=species:S:1:pos:R:3 gdb_88691=T pbc="F F F"
C        0.52750000       1.67880000      -0.57650000
N        0.12820000       0.31430000      -0.26880000
C        1.16350000      -0.62640000       0.13390000
C        0.13950000      -0.16400000       1.11860000
C        0.54170000       0.70010000       2.27110000
N       -0.54570000       1.27000000       3.09890000
C        0.39420000       0.31060000       3.70730000
C       -0.21570000      -1.01510000       4.11930000
C        1.42700000       0.84310000       4.68280000
H        1.41950000       2.03520000      -0.03690000
H        0.74330000       1.74350000      -1.64800000
H       -0.30200000       2.35790000      -0.35510000
H        1.11370000      -1.62110000      -0.30220000
H        2.17610000      -0.24160000       0.26430000
H       -0.69930000      -0.82080000       1.33240000
H        1.39160000       1.34890000       2.06900000
H       -0.31560000       2.22180000       3.37530000
H       -1.03470000      -1.30290000       3.45880000
H        0.53630000      -1.81200000       4.11480000
H       -0.62030000      -0.94300000       5.13530000
H        0.97470000       1.02120000       5.66580000
H        2.24570000       0.12830000       4.82280000
H        1.86070000       1.78580000       4.33290000
