17
Properties=species:S:1:pos:R:3 gdb_59164=T pbc="F F F"
C       -0.43320000       1.27310000       0.08040000
C        0.08320000      -0.15090000      -0.13820000
O        1.07420000      -0.20160000      -1.16000000
C        0.75730000      -0.68550000       1.10700000
C        0.06170000      -1.33870000       2.24080000
O       -1.09420000      -2.08340000       1.76700000
C       -0.25180000      -2.94540000       1.06030000
O       -0.56270000      -3.93360000       0.48300000
C        0.99790000      -2.17850000       1.40070000
H        0.38740000       1.94340000       0.35520000
H       -0.89500000       1.65770000      -0.83550000
H       -1.18990000       1.29680000       0.87090000
H       -0.76540000      -0.79990000      -0.39300000
H        0.66960000       0.09800000      -1.98020000
H        1.61940000      -0.09330000       1.41190000
H        0.07830000      -1.07860000       3.28970000
H        1.97720000      -2.59150000       1.59020000
