17
Properties=species:S:1:pos:R:3 gdb_43195=T pbc="F F F"
O       -0.00200000       0.07440000      -0.58190000
C       -0.06790000       1.21850000      -0.22820000
C       -1.22920000       2.17350000       0.11510000
C       -1.47890000       2.32250000       1.63780000
O       -0.46260000       3.34070000       1.76720000
C       -0.16470000       3.29330000       0.35700000
C        0.94810000       2.30630000      -0.00060000
C        2.33440000       2.16560000       0.57880000
C        2.17960000       2.53330000      -0.85920000
H       -2.08100000       2.22750000      -0.56030000
H       -2.47060000       2.71910000       1.88300000
H       -1.27940000       1.44040000       2.25680000
H       -0.16220000       4.27980000      -0.11100000
H        2.63930000       2.93060000       1.28450000
H        2.65500000       1.15820000       0.82200000
H        2.38280000       1.77960000      -1.61260000
H        2.38240000       3.55550000      -1.16090000
