17
Properties=species:S:1:pos:R:3 gdb_107546=T pbc="F F F"
C        0.02650000       1.33720000       0.33390000
O       -0.03510000       0.03190000      -0.22980000
C       -1.26390000      -0.55710000      -0.14040000
C       -1.90070000      -1.05420000       1.14430000
C       -1.64200000      -2.00310000       0.00450000
O       -2.68250000      -1.91470000      -0.97480000
C       -2.34440000      -0.54550000      -1.26210000
C       -3.45130000       0.45870000      -1.08550000
O       -4.49430000       0.25300000      -0.52150000
H        1.06130000       1.67140000       0.24040000
H       -0.62680000       2.03830000      -0.20380000
H       -0.26230000       1.32740000       1.39230000
H       -1.19180000      -1.13680000       1.96280000
H       -2.92140000      -0.80200000       1.41500000
H       -1.06100000      -2.91520000       0.05260000
H       -1.88320000      -0.44780000      -2.25380000
H       -3.19250000       1.46670000      -1.49090000
