13
Properties=species:S:1:pos:R:3 gdb_128879=T pbc="F F F"
N        0.03910000      -1.16410000      -0.07520000
C        0.02070000      -0.00740000      -0.04370000
C       -0.04560000       1.40590000      -0.00160000
C       -1.12900000       2.25530000       0.12740000
C       -2.54370000       2.80110000       0.28210000
C       -1.86210000       4.22530000       0.25050000
N       -0.58870000       3.47470000       0.10450000
N        0.75310000       3.47450000      -0.02890000
N        1.07560000       2.21240000      -0.09250000
H       -3.21500000       2.59780000      -0.55320000
H       -3.03820000       2.55260000       1.22190000
H       -2.09390000       4.84890000      -0.61350000
H       -1.91590000       4.80330000       1.17360000
