18
Properties=species:S:1:pos:R:3 gdb_55824=T pbc="F F F"
N       -0.55400000       0.40990000      -0.96460000
C       -0.10420000      -0.10490000       0.21740000
O        0.94740000       0.21980000       0.73370000
C       -1.05820000      -1.12920000       0.84170000
C       -0.97700000      -2.48040000       0.14450000
C       -2.17150000      -3.36090000      -0.19760000
C       -3.31310000      -2.50360000      -0.73200000
O       -2.42790000      -1.84310000      -1.68480000
C       -1.34860000      -2.70620000      -1.28580000
H        0.07880000       0.99130000      -1.49000000
H       -1.34340000      -0.01170000      -1.43450000
H       -0.78000000      -1.23790000       1.89140000
H       -2.07860000      -0.73750000       0.80340000
H       -0.11360000      -3.07690000       0.43170000
H       -2.25110000      -4.39740000       0.09970000
H       -4.07330000      -3.08070000      -1.26800000
H       -3.79950000      -1.79430000      -0.05260000
H       -0.70420000      -3.09200000      -2.06700000
