15
Properties=species:S:1:pos:R:3 gdb_56479=T pbc="F F F"
O        0.18830000       1.51390000      -0.34240000
C        0.02810000       0.14750000      -0.09300000
C        0.86390000      -0.70490000      -0.94930000
C        1.56710000      -1.41800000      -1.61380000
C        0.38870000      -0.17130000       1.37510000
O        0.86240000       0.70210000       2.06520000
C        0.18390000      -1.58110000       1.88210000
C        1.50840000      -2.19800000       2.33890000
O        1.81210000      -3.33940000       2.13310000
H        0.66580000       1.86090000       0.42940000
H       -1.02810000      -0.13010000      -0.24210000
H        2.18150000      -2.04120000      -2.21650000
H       -0.44780000      -1.50880000       2.77790000
H       -0.29190000      -2.23900000       1.15400000
H        2.16290000      -1.49570000       2.89560000
