23
Properties=species:S:1:pos:R:3 gdb_101585=T pbc="F F F"
C       -0.43660000       1.54530000       0.44280000
C        0.07830000       0.14730000       0.09060000
C        0.75910000      -0.55690000       1.26930000
O       -0.11660000      -0.67190000       2.39170000
C        1.33640000      -1.93250000       0.87430000
C        2.17930000      -2.51040000       2.00960000
O        3.31390000      -2.12640000       2.18610000
C        1.51250000      -3.53180000       2.91310000
C        2.40720000      -4.03520000       4.04140000
H        0.39010000       2.20740000       0.72170000
H       -0.95790000       1.99880000      -0.40530000
H       -1.12580000       1.50420000       1.29020000
H       -0.75200000      -0.48300000      -0.26280000
H        0.78940000       0.20570000      -0.74210000
H        1.58860000       0.06290000       1.63040000
H       -0.92570000      -1.09910000       2.08720000
H        0.51490000      -2.60590000       0.59950000
H        1.98950000      -1.80870000       0.00490000
H        0.60430000      -3.04830000       3.29870000
H        1.15540000      -4.35890000       2.28290000
H        3.30520000      -4.51510000       3.64340000
H        2.73650000      -3.20690000       4.67370000
H        1.87590000      -4.75880000       4.66610000
