16
Properties=species:S:1:pos:R:3 gdb_49044=T pbc="F F F"
N        0.07360000       1.20530000      -0.47980000
C        0.01740000       0.01880000      -0.08230000
O        0.98860000      -0.82520000       0.42140000
C        0.03560000      -1.93250000       0.55150000
C       -0.61050000      -1.97780000       1.94890000
C       -1.74370000      -1.02350000       1.45720000
C       -1.08880000      -1.00970000       0.02230000
C       -1.97170000      -1.26460000      -1.15810000
O       -2.11000000      -2.34850000      -1.66700000
H        1.01690000       1.58850000      -0.40020000
H        0.39550000      -2.83340000       0.05940000
H       -0.97500000      -2.97090000       2.21990000
H        0.03150000      -1.60170000       2.74690000
H       -2.72970000      -1.49150000       1.45620000
H       -1.81410000      -0.04450000       1.93260000
H       -2.51590000      -0.36970000      -1.52910000
