20
Properties=species:S:1:pos:R:3 gdb_82649=T pbc="F F F"
C       -0.09750000       1.59180000      -0.07110000
C        0.07890000       0.08620000       0.02750000
N        1.10350000      -0.60490000      -0.87640000
C        2.42280000       0.03360000      -0.47360000
C        2.28250000      -0.61510000       0.88490000
C        0.75810000      -0.60010000       1.20160000
O        0.27340000      -0.84510000       2.47100000
C        1.32980000      -1.62220000       0.27850000
C        1.26420000      -3.10370000       0.16930000
H        0.77470000       2.14710000       0.28340000
H       -0.29510000       1.88500000      -1.10790000
H       -0.95580000       1.90450000       0.53310000
H       -0.87720000      -0.40700000      -0.18050000
H        3.22090000      -0.40750000      -1.07810000
H        2.46540000       1.12290000      -0.56940000
H        3.00200000      -0.77650000       1.67980000
H        0.50940000      -0.10380000       3.03950000
H        0.29320000      -3.42610000      -0.22200000
H        2.04240000      -3.49530000      -0.49460000
H        1.39700000      -3.55580000       1.15750000
