17
Properties=species:S:1:pos:R:3 gdb_29446=T pbc="F F F"
C       -0.01880000       1.51010000       0.05620000
C       -0.00660000       0.01650000       0.02180000
C       -0.02600000      -0.79380000      -1.05950000
C       -0.00350000      -2.27570000      -0.67800000
C        0.03190000      -2.15850000       0.81030000
C        0.03000000      -0.84860000       1.20780000
N        0.06240000      -0.72950000       2.57480000
C        0.08390000      -1.97730000       2.99880000
N        0.06650000      -2.89210000       1.96550000
H        0.87000000       1.89630000       0.56860000
H       -0.05040000       1.93470000      -0.95060000
H       -0.88450000       1.88090000       0.61730000
H       -0.05420000      -0.46950000      -2.09190000
H       -0.88890000      -2.80300000      -1.05750000
H        0.87160000      -2.78730000      -1.10050000
H        0.11200000      -2.29470000       4.03060000
H        0.07770000      -3.89310000       2.06560000
