18
Properties=species:S:1:pos:R:3 gdb_104268=T pbc="F F F"
N       -0.00220000       1.47810000      -0.08310000
C        0.05080000       0.02790000      -0.04600000
C        1.01770000      -0.58760000      -1.05410000
O        2.29900000      -0.05150000      -0.76330000
C        0.16090000      -0.49490000       1.41630000
N       -1.30610000      -0.71210000       1.43520000
C       -1.37930000      -0.61470000      -0.03410000
C       -2.48310000       0.18200000      -0.57220000
N       -3.33680000       0.80140000      -1.04500000
H        0.95130000       1.83060000      -0.06600000
H       -0.41820000       1.79450000      -0.95600000
H        1.01620000      -1.68610000      -0.97100000
H        0.69060000      -0.32690000      -2.07430000
H        2.92080000      -0.35410000      -1.43090000
H        0.76410000      -1.40810000       1.49560000
H        0.50560000       0.23770000       2.14960000
H       -1.62480000      -1.59420000       1.81850000
H       -1.37860000      -1.58070000      -0.56060000
