16
Properties=species:S:1:pos:R:3 gdb_35539=T pbc="F F F"
N       -0.13270000      -1.16510000      -0.23530000
C       -0.07250000      -0.01590000      -0.12590000
C        0.00770000       1.43590000       0.01940000
C       -0.61530000       1.95450000       1.37400000
C        0.18170000       3.24640000       1.60470000
O        0.93090000       3.49240000       2.84270000
C        2.17890000       3.62780000       2.09070000
C        1.48110000       2.98790000       0.91810000
C        1.46090000       1.94790000       0.09760000
H       -0.52990000       1.87330000      -0.83320000
H       -1.69830000       2.08230000       1.31390000
H       -0.38470000       1.24010000       2.16850000
H       -0.37530000       4.15160000       1.32950000
H        2.45420000       4.68330000       1.97300000
H        3.00860000       3.07410000       2.54040000
H        2.28530000       1.42680000      -0.37040000
