17
Properties=species:S:1:pos:R:3 gdb_65060=T pbc="F F F"
N       -0.04410000       1.35620000       0.56410000
C       -0.00060000       0.00660000       0.05070000
C        0.89200000      -0.31630000      -1.10990000
C        1.19050000      -0.90800000       0.25120000
C       -1.37320000      -0.62720000       0.07930000
C       -2.28980000      -0.55060000      -1.07140000
O       -1.59580000      -1.76190000      -0.75620000
C       -1.94970000      -0.72970000       1.41340000
N       -2.36880000      -0.78300000       2.48900000
H       -0.00690000       1.35980000       1.57950000
H        0.74440000       1.89730000       0.22980000
H        0.51390000      -0.98890000      -1.87030000
H        1.52970000       0.47920000      -1.48180000
H        2.02800000      -0.50970000       0.81320000
H        1.01300000      -1.97000000       0.38240000
H       -3.36460000      -0.57640000      -0.91020000
H       -1.94390000      -0.02980000      -1.96120000
