21
Properties=species:S:1:pos:R:3 gdb_59408=T pbc="F F F"
C        0.37580000       0.65720000      -1.64850000
N        0.02100000      -0.11330000      -0.46170000
C        0.29250000       0.62640000       0.76580000
C       -1.32370000      -0.59810000      -0.50780000
C       -1.65210000      -1.75200000      -1.40370000
C       -1.63110000      -1.97120000       0.10580000
C       -0.52090000      -2.81730000       0.70860000
C       -2.91180000      -2.09030000       0.75710000
N       -3.93490000      -2.18560000       1.28980000
H        1.43830000       0.91670000      -1.60870000
H        0.20130000       0.05930000      -2.54660000
H       -0.20000000       1.59600000      -1.74340000
H       -0.30500000       1.55280000       0.84910000
H        0.07130000       0.00110000       1.63460000
H        1.35070000       0.90250000       0.80140000
H       -2.11800000       0.14460000      -0.37610000
H       -2.60740000      -1.75900000      -1.91400000
H       -0.83120000      -2.20940000      -1.94490000
H        0.42880000      -2.55570000       0.23940000
H       -0.43540000      -2.64510000       1.78550000
H       -0.71890000      -3.88170000       0.55200000
