17
Properties=species:S:1:pos:R:3 gdb_50545=T pbc="F F F"
O       -0.67590000       0.64190000       0.56530000
C        0.00600000       1.10870000      -0.31060000
C        1.21790000       1.98740000      -0.13010000
C        1.08520000       3.37620000      -0.82630000
N        0.82500000       3.96940000       0.50200000
C        1.40190000       2.79530000       1.18700000
C        0.69330000       2.39230000       2.48950000
C        0.96970000       3.37460000       3.53660000
N        1.21060000       4.16850000       4.34130000
H       -0.21930000       0.89580000      -1.38210000
H        2.08710000       1.40210000      -0.44900000
H        2.02370000       3.68930000      -1.30260000
H        0.26780000       3.49820000      -1.54580000
H        1.27390000       4.85850000       0.69240000
H        2.47710000       2.89950000       1.39630000
H       -0.38270000       2.32150000       2.32650000
H        1.03740000       1.40750000       2.82260000
