21
Properties=species:S:1:pos:R:3 gdb_90044=T pbc="F F F"
C       -0.20300000       1.59930000      -0.28580000
C       -0.01600000       0.12140000      -0.00800000
O        0.95790000      -0.53490000      -0.93590000
C        1.78310000      -0.76260000       0.20610000
C        2.50490000      -1.75840000       1.15000000
C        2.10680000      -0.43340000       1.99350000
C        2.37830000      -0.21610000       3.45870000
C        2.65820000       0.37870000       0.80590000
C        0.71030000      -0.53990000       1.24090000
H        0.72620000       2.16760000      -0.24570000
H       -0.63250000       1.73050000      -1.28460000
H       -0.90350000       2.02230000       0.44220000
H       -0.97880000      -0.38630000      -0.12230000
H        1.96420000      -2.67230000       1.40550000
H        3.57880000      -1.93290000       1.02600000
H        3.44980000      -0.29750000       3.67320000
H        2.04710000       0.78080000       3.76800000
H        1.85250000      -0.95340000       4.07390000
H        3.73460000       0.31680000       0.62580000
H        2.29760000       1.40100000       0.71090000
H        0.14840000      -1.43170000       1.52950000
