27
Properties=species:S:1:pos:R:3 gdb_123013=T pbc="F F F"
C       -0.17850000       1.55700000       0.06850000
C       -0.20680000       0.03570000      -0.10190000
C        0.78960000      -0.47510000      -1.14820000
C        0.76760000      -1.99690000      -1.32250000
C        1.76590000      -2.50740000      -2.37100000
C        1.73940000      -4.01550000      -2.51850000
C        0.74170000      -4.69540000      -3.42940000
C        2.21600000      -4.74350000      -3.75640000
C        2.77390000      -4.03460000      -4.97170000
H        0.81290000       1.90190000       0.38320000
H       -0.42010000       2.06550000      -0.87170000
H       -0.90030000       1.88980000       0.82100000
H        0.00420000      -0.44510000       0.86280000
H       -1.21980000      -0.28290000      -0.38190000
H        0.57800000       0.00550000      -2.11410000
H        1.80360000      -0.15460000      -0.86960000
H        0.98090000      -2.47630000      -0.35670000
H       -0.24380000      -2.32070000      -1.60250000
H        1.54710000      -2.02910000      -3.33350000
H        2.77840000      -2.18130000      -2.09390000
H        1.93940000      -4.53720000      -1.58420000
H        0.24270000      -5.59800000      -3.09290000
H        0.12030000      -4.05310000      -4.04760000
H        2.69990000      -5.69680000      -3.55620000
H        2.24100000      -3.10380000      -5.18520000
H        3.83370000      -3.78700000      -4.84150000
H        2.68960000      -4.66850000      -5.86160000
