18
Properties=species:S:1:pos:R:3 gdb_8539=T pbc="F F F"
C       -0.64630000       1.43010000      -0.42700000
N       -0.42830000       0.02130000      -0.12110000
C       -1.23550000      -0.58680000       0.97600000
C       -0.12780000      -1.64890000       1.24580000
N       -0.03000000      -1.42750000       2.71810000
C       -0.33390000      -0.05550000       2.17860000
C       -0.46840000       1.10840000       3.11970000
C        0.58890000      -0.31420000       0.91750000
H        0.18180000       1.79170000      -1.04600000
H       -1.56480000       1.52780000      -1.01560000
H       -0.73150000       2.09450000       0.44670000
H       -2.31990000      -0.71830000       0.92710000
H        0.01040000      -2.61190000       0.75650000
H       -0.85790000      -1.80860000       3.18570000
H        0.43030000       1.18780000       3.74020000
H       -0.61070000       2.05420000       2.59300000
H       -1.32490000       0.96320000       3.78860000
H        1.65830000      -0.12980000       0.80610000
