18
Properties=species:S:1:pos:R:3 gdb_90863=T pbc="F F F"
O        0.04230000       1.46810000       0.04570000
C        0.06080000       0.05590000      -0.01060000
C       -1.41510000      -0.45150000       0.01540000
C       -1.43920000      -1.98370000      -0.07060000
C       -0.17640000      -2.68430000      -0.36890000
N       -1.35480000      -2.96200000      -1.25620000
C       -0.54990000      -2.46710000      -2.45680000
C        0.41090000      -1.82590000      -1.47870000
C        0.56070000      -0.50880000      -1.32090000
H        0.95330000       1.77870000       0.04070000
H        0.58490000      -0.37130000       0.85720000
H       -1.90150000      -0.14670000       0.94860000
H       -1.95830000       0.03630000      -0.80030000
H       -2.10570000      -2.45850000       0.64390000
H        0.31160000      -3.45320000       0.22080000
H       -0.21020000      -3.36960000      -2.97360000
H       -1.07480000      -1.80860000      -3.15620000
H        0.53540000       0.16530000      -2.17550000
