16
Properties=species:S:1:pos:R:3 gdb_53894=T pbc="F F F"
C        1.00710000       1.27030000      -0.10950000
C       -0.16430000       0.32230000      -0.18480000
O       -1.06560000       0.32890000       0.62130000
C       -0.12210000      -0.69340000      -1.35720000
C        0.46460000      -1.92570000      -0.84370000
C        0.95790000      -2.92530000      -0.39430000
C       -1.49580000      -0.95710000      -2.04310000
N       -2.51160000      -1.23810000      -1.19170000
O       -1.58230000      -0.94150000      -3.25200000
H        1.94580000       0.70670000      -0.13760000
H        1.00310000       1.92860000      -0.98620000
H        0.95100000       1.86770000       0.80070000
H        0.51310000      -0.29690000      -2.15470000
H        1.38380000      -3.82020000      -0.01230000
H       -2.41400000      -0.97840000      -0.21960000
H       -3.43290000      -1.31980000      -1.59220000
