20
Properties=species:S:1:pos:R:3 gdb_16069=T pbc="F F F"
C       -0.04800000       1.51610000      -0.14350000
C       -0.02510000       0.00990000       0.15360000
C       -1.38560000      -0.60650000       0.05540000
O       -2.36800000      -0.17530000       1.01850000
C       -2.85190000      -1.53730000       1.15660000
C       -1.92210000      -2.02760000       0.05610000
C       -2.06690000      -1.14000000      -1.17440000
C       -3.38120000      -0.61960000      -1.71120000
H        0.94810000       1.95350000      -0.02880000
H       -0.38950000       1.71080000      -1.16530000
H       -0.72750000       2.03120000       0.54150000
H        0.64290000      -0.50570000      -0.54660000
H        0.37360000      -0.16160000       1.16120000
H       -2.60180000      -1.93310000       2.14760000
H       -3.93360000      -1.61430000       0.99390000
H       -1.40220000      -2.97680000       0.04320000
H       -1.34670000      -1.42920000      -1.93860000
H       -3.97530000      -0.16640000      -0.91400000
H       -3.20990000       0.15140000      -2.47010000
H       -3.97140000      -1.41800000      -2.17410000
