16
Properties=species:S:1:pos:R:3 gdb_97014=T pbc="F F F"
C       -0.18790000       1.43810000       0.34000000
N        0.00560000       0.02300000       0.06110000
C        0.62060000      -0.66710000       0.92350000
C        0.93940000      -2.16090000       0.84880000
N        1.66320000      -2.49700000       2.08290000
C        1.74340000      -1.39850000       2.74130000
N        1.17130000      -0.28680000       2.15430000
C        2.40570000      -1.28490000       4.06370000
O        2.46790000      -0.23920000       4.66450000
H        0.76710000       1.97450000       0.45080000
H       -0.73240000       1.90060000      -0.48640000
H       -0.77180000       1.60530000       1.25830000
H        0.02870000      -2.76470000       0.76850000
H        1.55380000      -2.39950000      -0.02640000
H        1.17160000       0.62700000       2.57460000
H        2.82850000      -2.23470000       4.43980000
