16
Properties=species:S:1:pos:R:3 gdb_2263=T pbc="F F F"
C       -0.06390000       1.52930000       0.04530000
C        0.14980000       0.04980000      -0.01420000
N       -0.79020000      -0.91390000       0.61870000
C        0.65820000      -0.94470000       0.97160000
C        1.32310000      -1.78880000      -0.11280000
C        0.74640000      -0.77410000      -1.17720000
O       -0.16250000      -1.24740000      -2.12940000
H        0.84580000       2.06910000      -0.23870000
H       -0.86140000       1.83750000      -0.64060000
H       -0.34350000       1.85120000       1.05480000
H       -1.27970000      -0.41470000       1.36070000
H        0.97190000      -0.79660000       1.99810000
H        2.41490000      -1.77860000      -0.07250000
H        0.96330000      -2.81700000      -0.20190000
H        1.53720000      -0.24590000      -1.71600000
H       -0.91560000      -1.57240000      -1.61590000
