23
Properties=species:S:1:pos:R:3 gdb_73462=T pbc="F F F"
C        0.06500000       1.49090000      -0.07300000
C        0.03390000      -0.02330000      -0.03560000
C       -1.26160000      -0.63550000      -0.56470000
C       -1.27290000      -2.18900000      -0.51740000
C        0.04460000      -2.73230000       0.05960000
C        0.28000000      -2.11040000       1.45520000
C        0.74620000      -0.70120000       1.11580000
C        1.33990000      -0.74800000      -0.28390000
C        1.22560000      -2.18500000      -0.77420000
H        1.01160000       1.88040000       0.31530000
H       -0.05430000       1.86480000      -1.09730000
H       -0.74450000       1.91930000       0.53070000
H       -2.10020000      -0.23040000       0.01500000
H       -1.41840000      -0.28430000      -1.59210000
H       -2.11050000      -2.54450000       0.09260000
H       -1.42580000      -2.59860000      -1.52180000
H        0.02140000      -3.82520000       0.08630000
H       -0.62350000      -2.13890000       2.07590000
H        1.06830000      -2.64510000       1.99900000
H        1.18310000      -0.08260000       1.89320000
H        2.21700000      -0.16420000      -0.54410000
H        2.15160000      -2.73050000      -0.55480000
H        1.04270000      -2.27030000      -1.85200000
