16
Properties=species:S:1:pos:R:3 gdb_17088=T pbc="F F F"
C       -0.01800000      -1.19220000      -0.08280000
C        0.00280000       0.00810000      -0.01770000
C        0.03060000       1.45800000       0.04770000
C       -0.42390000       2.06910000       1.42720000
C        0.88150000       2.82450000       1.74670000
C        1.23780000       3.53800000       0.42360000
C        1.47230000       2.05780000       0.05680000
O        1.89880000       1.82280000       1.42780000
H       -0.03320000      -2.25240000      -0.13510000
H       -0.55110000       1.87190000      -0.78290000
H       -1.29470000       2.72270000       1.33580000
H       -0.63160000       1.29380000       2.16510000
H        0.99710000       3.28070000       2.72930000
H        0.47060000       4.11100000      -0.10440000
H        2.17520000       4.08940000       0.49600000
H        2.17310000       1.71330000      -0.70220000
