15
Properties=species:S:1:pos:R:3 gdb_44398=T pbc="F F F"
N       -0.05460000       1.25770000      -0.27420000
C        0.03830000       0.03940000      -0.00970000
N        1.19890000      -0.85420000       0.29800000
C        0.20560000      -1.74790000       1.03540000
C       -0.81330000      -2.96800000       0.92250000
O       -1.87600000      -1.91220000       1.06870000
C       -0.88600000      -1.16090000       0.20810000
C       -0.91130000      -2.03800000      -1.06930000
C       -0.86250000      -3.26970000      -0.56690000
H        0.86740000       1.69370000      -0.34420000
H        1.63340000      -1.23540000      -0.53990000
H        0.20460000      -1.40610000       2.07010000
H       -0.88800000      -3.75090000       1.67580000
H       -0.98040000      -1.66870000      -2.08160000
H       -0.87210000      -4.24100000      -1.03830000
