17
Properties=species:S:1:pos:R:3 gdb_126846=T pbc="F F F"
C       -0.08420000       1.52070000      -0.14430000
C       -0.08010000       0.00610000       0.05240000
N       -1.42460000      -0.55390000       0.03790000
N       -1.98760000      -1.08340000       1.10640000
N       -3.19470000      -1.46220000       0.73990000
C       -3.29510000      -1.12850000      -0.56670000
O       -4.35930000      -1.33790000      -1.33230000
C       -5.46760000      -1.97330000      -0.68800000
N       -2.19760000      -0.55130000      -1.04870000
H        0.94390000       1.89330000      -0.13930000
H       -0.54540000       1.78280000      -1.09910000
H       -0.63630000       2.01550000       0.65930000
H        0.49180000      -0.48970000      -0.73700000
H        0.34000000      -0.27660000       1.01920000
H       -5.83350000      -1.36740000       0.14600000
H       -6.23680000      -2.06640000      -1.45460000
H       -5.18540000      -2.96050000      -0.31060000
