17
Properties=species:S:1:pos:R:3 gdb_133855=T pbc="F F F"
C        1.03750000      -0.10580000      -1.03800000
C        2.48050000       0.23570000      -0.99370000
O        3.82090000      -2.06920000       1.26560000
C        4.32130000      -1.28720000       0.50520000
C        5.74900000      -0.66420000       0.63100000
C        5.57660000       0.70220000      -0.02510000
C        4.46270000       0.69120000      -0.76240000
C        3.21470000       1.36410000      -1.16030000
C        3.73480000      -0.63570000      -0.75510000
H        0.42400000       0.76860000      -1.27220000
H        0.70610000      -0.51800000      -0.07730000
H        0.84180000      -0.87880000      -1.79190000
H        6.49570000      -1.31760000       0.15660000
H        6.02210000      -0.59770000       1.68940000
H        6.17280000       1.56440000       0.24920000
H        2.95550000       2.39140000      -1.38360000
H        3.95890000      -1.28830000      -1.61040000
