17
Properties=species:S:1:pos:R:3 gdb_39230=T pbc="F F F"
C       -0.01950000       1.46790000       0.13510000
C        1.33010000       0.79310000      -0.01280000
O        2.15190000       0.42340000       1.05310000
C        2.30630000      -1.00790000       1.06560000
C        0.91850000      -1.73750000       0.89570000
O       -0.05530000      -0.72960000       1.16110000
C        0.04310000      -0.01060000      -0.05410000
C       -0.01930000      -1.07460000      -1.11840000
C        0.56980000      -2.13130000      -0.55510000
H       -0.35170000       1.78940000       1.11600000
H       -0.31850000       2.10620000      -0.68960000
H        1.85330000       0.96860000      -0.95330000
H        3.01380000      -1.32310000       0.28530000
H        2.73770000      -1.24170000       2.04140000
H        0.81010000      -2.54970000       1.61730000
H       -0.36990000      -0.95110000      -2.13310000
H        0.79830000      -3.08790000      -1.00460000
