22
Properties=species:S:1:pos:R:3 gdb_82318=T pbc="F F F"
C       -0.87030000       1.04110000       0.03620000
C        0.02860000      -0.17320000      -0.15820000
N        0.92360000      -0.00910000      -1.32940000
C        2.10910000       0.82460000      -1.06340000
C        2.20600000      -0.65510000      -0.98610000
C        2.11670000      -1.29240000       0.39230000
C        0.92040000      -0.58520000       1.02840000
C        1.09920000       0.26850000       2.26290000
C        0.34900000      -1.03860000       2.34070000
H       -0.28560000       1.94700000       0.22320000
H       -1.47070000       1.20660000      -0.86240000
H       -1.55500000       0.89610000       0.87840000
H       -0.60800000      -1.03380000      -0.40820000
H        2.49230000       1.34810000      -1.93440000
H        2.16050000       1.38910000      -0.13640000
H        2.69610000      -1.20900000      -1.78200000
H        1.92120000      -2.36690000       0.28380000
H        3.03560000      -1.18550000       0.97810000
H        2.08990000       0.31720000       2.70430000
H        0.52910000       1.18600000       2.35760000
H       -0.72850000      -0.99640000       2.47050000
H        0.82060000      -1.87680000       2.84390000
