19
Properties=species:S:1:pos:R:3 gdb_1133=T pbc="F F F"
C       -0.06560000       1.53980000      -0.01950000
C       -0.00150000       0.01260000      -0.02140000
O        0.72070000      -0.46760000      -1.15930000
C        0.71850000      -0.54020000       1.20750000
C        0.65150000      -2.06300000       1.31130000
C        1.51370000      -2.60650000       2.45050000
O       -0.72660000      -2.39120000       1.51150000
H        0.94240000       1.96680000       0.00620000
H       -0.56740000       1.91000000      -0.92120000
H       -0.62470000       1.90990000       0.84630000
H       -1.02210000      -0.39640000      -0.02820000
H        0.22830000      -0.21960000      -1.94760000
H        1.76790000      -0.22520000       1.16750000
H        0.27420000      -0.10940000       2.11260000
H        0.99960000      -2.48300000       0.35660000
H        2.57020000      -2.36340000       2.29580000
H        1.19430000      -2.18470000       3.40920000
H        1.43060000      -3.69760000       2.51590000
H       -0.81000000      -3.34890000       1.47650000
