13
Properties=species:S:1:pos:R:3 gdb_1227=T pbc="F F F"
N       -0.03790000       1.31490000       0.00880000
C        0.04650000      -0.03930000       0.00090000
O        1.10480000      -0.64150000      -0.01400000
C       -1.29990000      -0.76540000       0.01200000
N       -1.05150000      -2.18300000       0.00420000
C       -2.05400000      -3.09080000       0.00470000
O       -3.23620000      -2.80940000       0.01420000
H        0.81390000       1.85100000       0.00200000
H       -0.91810000       1.80000000       0.02150000
H       -1.87740000      -0.46820000       0.89770000
H       -1.89520000      -0.46190000      -0.85960000
H       -0.07580000      -2.44930000      -0.00760000
H       -1.67500000      -4.13150000      -0.00450000
