21
Properties=species:S:1:pos:R:3 gdb_61071=T pbc="F F F"
C        0.03550000       1.57030000       0.05030000
C        0.02440000       0.03130000       0.01380000
C        0.76180000      -0.49050000       1.23340000
O        1.75790000      -1.16570000       1.21100000
C       -1.40350000      -0.54270000      -0.00730000
C       -2.24690000      -0.14810000      -1.24430000
C       -3.11750000      -1.40340000      -1.51320000
O       -2.78900000      -2.36270000      -0.51270000
C       -1.47700000      -2.07840000      -0.06730000
H        1.05850000       1.95770000       0.03570000
H       -0.49420000       1.98170000      -0.81300000
H       -0.45590000       1.94730000       0.95460000
H        0.57190000      -0.32460000      -0.86680000
H        0.29720000      -0.18650000       2.20350000
H       -1.92950000      -0.21630000       0.89930000
H       -2.85150000       0.74340000      -1.06490000
H       -1.59890000       0.06260000      -2.10110000
H       -4.19110000      -1.20640000      -1.44130000
H       -2.91430000      -1.81080000      -2.51440000
H       -0.71830000      -2.47200000      -0.76670000
H       -1.33540000      -2.57060000       0.89890000
