15
Properties=species:S:1:pos:R:3 gdb_125917=T pbc="F F F"
C        0.15160000       1.52760000      -0.01140000
C        0.05670000       0.01370000       0.02360000
C        0.84760000      -0.70890000      -1.10180000
C        1.44540000      -1.83680000      -0.31380000
C        1.31520000      -1.61260000       1.12880000
O        1.74240000      -2.24780000       2.05150000
N        2.64910000      -3.75420000      -1.19370000
N        2.08550000      -2.85680000      -0.78830000
O        0.58880000      -0.46300000       1.27920000
H        1.19600000       1.84810000       0.04970000
H       -0.27750000       1.90920000      -0.94330000
H       -0.39550000       1.96630000       0.82670000
H       -0.99380000      -0.29930000      -0.01220000
H        0.18730000      -1.02910000      -1.91250000
H        1.61150000      -0.04770000      -1.53110000
