15
Properties=species:S:1:pos:R:3 gdb_123810=T pbc="F F F"
C       -0.36300000       1.11690000      -0.10800000
C        1.12160000       1.04500000       0.19750000
C        0.34130000      -0.20390000      -0.03410000
O        0.14750000      -1.00810000       1.11520000
C       -0.89860000      -1.84400000       1.08520000
C       -1.36430000      -2.64600000       2.08210000
O       -2.41040000      -3.32620000       1.59740000
N       -2.58570000      -2.92020000       0.26240000
N       -1.69470000      -2.06110000      -0.01010000
H       -1.02380000       1.36930000       0.71320000
H       -0.68860000       1.46760000      -1.08050000
H        1.83360000       1.35070000      -0.56010000
H        1.42620000       1.24570000       1.21810000
H        0.48920000      -0.78050000      -0.94100000
H       -1.07120000      -2.82260000       3.10150000
