15
Properties=species:S:1:pos:R:3 gdb_30519=T pbc="F F F"
C        0.10210000       1.41390000       0.35740000
N       -0.02160000      -0.00720000       0.09210000
C       -1.12710000      -0.58810000      -0.13870000
N       -1.12000000      -1.95600000      -0.37960000
C       -2.25850000      -2.68860000      -0.64110000
C       -3.44840000      -2.09080000      -0.67310000
O       -3.57820000      -0.73520000      -0.44810000
C       -2.49950000       0.05980000      -0.18350000
O       -2.67630000       1.23110000       0.00240000
H        1.16050000       1.63600000       0.51910000
H       -0.26090000       2.02760000      -0.47430000
H       -0.45970000       1.72380000       1.24540000
H       -0.21110000      -2.39190000      -0.35160000
H       -2.13930000      -3.74800000      -0.81480000
H       -4.39310000      -2.57140000      -0.86750000
