16
Properties=species:S:1:pos:R:3 gdb_50750=T pbc="F F F"
O       -0.29780000       0.01490000       0.02640000
C       -0.09060000       1.19390000       0.01170000
N        1.15620000       1.84130000      -0.01910000
C        1.13330000       3.31270000      -0.09810000
C        2.40970000       3.90290000       0.47470000
O        3.51950000       3.37390000      -0.21940000
C        3.65330000       1.99130000       0.02290000
C        2.37720000       1.14070000      -0.04140000
O        2.46510000      -0.05980000      -0.05300000
H       -0.90300000       1.95010000       0.03200000
H        1.03190000       3.63180000      -1.14250000
H        0.26220000       3.67840000       0.45480000
H        2.42200000       4.98580000       0.32820000
H        2.48300000       3.69530000       1.55490000
H        4.34620000       1.58900000      -0.71880000
H        4.08700000       1.80410000       1.01960000
