20
Properties=species:S:1:pos:R:3 gdb_69473=T pbc="F F F"
C        0.01520000       1.56300000       0.01610000
C        0.09210000       0.06470000      -0.00950000
C       -0.82800000      -0.82940000       0.77340000
C        0.65650000      -0.92550000       1.01850000
C        1.28990000      -1.75790000      -0.08800000
C        0.72070000      -0.76110000      -1.14760000
O        2.71030000      -1.71350000       0.00550000
C        3.40040000      -2.67150000      -0.64050000
N        4.65960000      -2.60960000      -0.70930000
H        0.98470000       2.01590000      -0.21920000
H       -0.71280000       1.93470000      -0.71540000
H       -0.29470000       1.92570000       1.00170000
H       -1.38820000      -0.34240000       1.56570000
H       -1.36360000      -1.64580000       0.29180000
H        1.10790000      -0.75140000       1.98750000
H        0.95920000      -2.80280000      -0.16040000
H        0.03780000      -1.16000000      -1.90570000
H        1.54670000      -0.24170000      -1.63880000
H        2.76320000      -3.46570000      -1.05520000
H        5.01810000      -3.42440000      -1.20290000
