17
Properties=species:S:1:pos:R:3 gdb_84576=T pbc="F F F"
O        0.10300000       1.44840000      -0.06750000
C        0.04080000       0.03000000      -0.03780000
C        0.68880000      -0.54980000       1.20940000
C       -0.14140000      -1.26490000       1.96980000
C       -1.51130000      -1.35110000       1.36470000
C       -2.60490000      -0.34230000       1.82160000
O       -2.05150000       0.97760000       1.76170000
C       -2.51840000       0.38160000       0.54140000
C       -1.40270000      -0.54930000       0.02260000
H       -0.31450000       1.74520000       0.75200000
H        0.56030000      -0.28910000      -0.94810000
H        1.72470000      -0.32850000       1.44480000
H        0.11810000      -1.71830000       2.92050000
H       -1.91370000      -2.36280000       1.26590000
H       -3.43480000      -0.48950000       2.50280000
H       -3.26640000       0.93190000      -0.01640000
H       -1.69230000      -1.11030000      -0.86660000
