17
Properties=species:S:1:pos:R:3 gdb_16385=T pbc="F F F"
C       -0.10800000       1.54240000       0.00090000
C        0.06620000       0.03050000      -0.03760000
N        0.90220000      -0.48520000      -1.17110000
C        1.07410000      -1.92730000      -0.72960000
C        1.91990000      -1.36180000       0.44900000
C        2.30520000      -0.29240000      -0.61490000
C        0.83230000      -0.57450000       1.16920000
O        0.62470000      -0.43430000       2.34410000
H        0.84980000       2.07020000       0.02420000
H       -0.66420000       1.88540000      -0.87530000
H       -0.66090000       1.82000000       0.90270000
H       -0.92220000      -0.43960000      -0.10520000
H        0.14520000      -2.46220000      -0.51240000
H        1.66810000      -2.47950000      -1.46130000
H        2.62280000      -1.92950000       1.05620000
H        3.04310000      -0.64770000      -1.33730000
H        2.55750000       0.71940000      -0.29080000
