20
Properties=species:S:1:pos:R:3 gdb_120107=T pbc="F F F"
O       -0.69180000       1.90500000       0.14970000
C       -0.10190000       0.62560000       0.22190000
C       -1.16480000      -0.47520000       0.31510000
N       -2.08440000      -0.30740000      -0.81310000
C       -2.48560000      -1.20630000      -1.85380000
C       -3.03810000      -2.60470000      -1.40260000
C       -3.08730000      -2.83900000       0.08590000
C       -4.08020000      -1.90760000      -0.54140000
C       -3.49750000      -0.52060000      -0.97910000
H       -1.37090000       1.81780000      -0.53330000
H        0.54110000       0.42900000      -0.65280000
H        0.53550000       0.60680000       1.11290000
H       -0.67220000      -1.45420000       0.30500000
H       -1.71920000      -0.36620000       1.25370000
H       -2.20280000      -1.00400000      -2.88180000
H       -3.19560000      -3.40550000      -2.11320000
H       -3.50560000      -3.80640000       0.35170000
H       -2.32430000      -2.50390000       0.77190000
H       -5.14740000      -2.08570000      -0.51600000
H       -4.13470000       0.33150000      -1.19160000
