21
Properties=species:S:1:pos:R:3 gdb_57471=T pbc="F F F"
C       -0.24170000       1.46780000      -0.01150000
C       -0.01790000      -0.04520000       0.06130000
C        0.78470000      -0.42560000       1.31150000
O       -1.32720000      -0.62800000       0.12670000
C        0.69790000      -0.53590000      -1.21380000
C        0.79550000      -2.07080000      -1.49810000
C        0.19170000      -1.86990000      -2.91970000
C       -0.06070000      -0.39970000      -2.55430000
O       -0.64740000       0.49600000      -3.08880000
H        0.71360000       1.99830000      -0.07030000
H       -0.83150000       1.72040000      -0.89450000
H       -0.77470000       1.80550000       0.88170000
H        0.24570000      -0.11150000       2.21070000
H        0.94350000      -1.50950000       1.36610000
H        1.76880000       0.05310000       1.31420000
H       -1.24420000      -1.51340000       0.49410000
H        1.67620000      -0.04570000      -1.29240000
H        1.79980000      -2.49440000      -1.46460000
H        0.14550000      -2.66660000      -0.85300000
H        0.90890000      -1.97690000      -3.73970000
H       -0.70440000      -2.44440000      -3.16920000
