18
Properties=species:S:1:pos:R:3 gdb_126976=T pbc="F F F"
C        0.09420000       1.47300000       0.40650000
C        0.00670000       0.01070000      -0.01860000
N       -1.37750000      -0.44570000      -0.03020000
C       -1.52140000      -1.83830000      -0.40190000
C       -2.91420000      -2.34120000      -0.19830000
N       -3.82730000      -1.67760000       0.45900000
O       -4.94010000      -2.53230000       0.42950000
C       -4.55320000      -3.61160000      -0.24920000
N       -3.32930000      -3.57510000      -0.66520000
H        1.13040000       1.82260000       0.38280000
H       -0.50450000       2.10320000      -0.25690000
H       -0.27870000       1.60820000       1.42830000
H        0.40590000      -0.10340000      -1.03550000
H        0.65200000      -0.60780000       0.63500000
H       -1.81170000      -0.28290000       0.87270000
H       -1.26790000      -1.96490000      -1.46280000
H       -0.84400000      -2.52420000       0.14630000
H       -5.28430000      -4.39510000      -0.38600000
