19
Properties=species:S:1:pos:R:3 gdb_83370=T pbc="F F F"
C       -0.10680000       1.53570000       0.01150000
C        0.04800000       0.02010000       0.02060000
C        1.08510000      -0.59040000      -0.93200000
O        2.32490000      -0.06030000      -0.47790000
C        2.23120000      -0.06960000       0.95800000
C        0.80270000      -0.60690000       1.21670000
O        0.24640000      -0.33420000       2.47090000
C        0.80130000      -2.08290000       0.76120000
O        1.02080000      -1.98350000      -0.65900000
H        0.85850000       2.04370000      -0.05000000
H       -0.70470000       1.85430000      -0.84790000
H       -0.61760000       1.87070000       0.91920000
H       -0.92310000      -0.46730000      -0.10790000
H        1.01040000      -0.43540000      -2.00670000
H        3.00840000      -0.72120000       1.37820000
H        2.36250000       0.94260000       1.35740000
H        0.79720000      -0.73780000       3.15040000
H        1.60350000      -2.67710000       1.21750000
H       -0.16350000      -2.56270000       0.96960000
