17
Properties=species:S:1:pos:R:3 gdb_33904=T pbc="F F F"
N        0.06870000      -1.14580000      -0.02660000
C        0.05140000       0.01100000       0.00360000
C        0.03550000       1.44100000       0.03080000
C        0.32710000       2.26420000      -1.20870000
C        1.19850000       2.45950000      -0.00810000
C        0.46270000       3.20430000       1.11490000
C       -0.56450000       4.32340000       0.79330000
C       -1.64890000       3.20600000       0.75960000
N       -0.62650000       2.16610000       1.13680000
H        0.78300000       1.69830000      -2.01390000
H       -0.37180000       3.02410000      -1.54030000
H        2.26010000       2.24950000      -0.02780000
H        1.04190000       3.30420000       2.03570000
H       -0.69000000       5.04860000       1.59890000
H       -0.40010000       4.86470000      -0.14110000
H       -2.42150000       3.28890000       1.52750000
H       -2.13560000       3.03300000      -0.20440000
