20
Properties=species:S:1:pos:R:3 gdb_115539=T pbc="F F F"
C       -0.05270000       1.58350000      -0.22030000
C        0.05690000       0.07750000       0.04730000
C       -1.30920000      -0.57250000       0.12650000
O       -2.04990000      -0.50860000      -1.11340000
C       -2.51350000      -1.85860000      -0.96050000
C       -1.46910000      -2.13570000       0.16050000
C       -0.26220000      -2.95290000      -0.31460000
C       -2.00150000      -2.66770000       1.40830000
N       -2.42290000      -3.08260000       2.40200000
H        0.93850000       2.03870000      -0.29710000
H       -0.58810000       1.76920000      -1.15550000
H       -0.59460000       2.09070000       0.58500000
H        0.64750000      -0.39630000      -0.74320000
H        0.57890000      -0.10270000       0.99590000
H       -1.89240000      -0.11290000       0.93840000
H       -3.55550000      -1.90690000      -0.62170000
H       -2.39390000      -2.44770000      -1.87580000
H        0.09120000      -2.57600000      -1.27720000
H        0.55990000      -2.90560000       0.40420000
H       -0.54460000      -4.00210000      -0.43940000
