19
Properties=species:S:1:pos:R:3 gdb_35987=T pbc="F F F"
C       -0.00280000      -1.43340000       0.23130000
C       -0.02120000      -0.23300000       0.22500000
C       -0.06090000       1.23130000       0.21860000
C        1.25220000       1.85490000       0.04170000
C        2.33270000       2.36810000      -0.09870000
C        3.61990000       3.00420000      -0.28990000
C        4.20620000       3.12980000      -1.73500000
C        4.73530000       4.53780000      -1.35590000
C        3.72870000       4.56110000      -0.17590000
H        0.02010000      -2.49490000       0.23620000
H       -0.74080000       1.56830000      -0.57640000
H       -0.51170000       1.58220000       1.15760000
H        4.36580000       2.53990000       0.36510000
H        4.92580000       2.36990000      -2.04670000
H        3.40260000       3.18130000      -2.47370000
H        5.77070000       4.50130000      -1.00490000
H        4.65160000       5.32690000      -2.10570000
H        2.78420000       5.03450000      -0.45540000
H        4.05920000       4.96760000       0.78230000
