21
Properties=species:S:1:pos:R:3 gdb_68220=T pbc="F F F"
O       -0.09090000       1.37530000       0.00700000
C        0.03410000      -0.01040000       0.02400000
C        0.91960000      -0.81830000      -0.97780000
C        0.71170000      -1.93530000       0.08620000
C        0.75640000      -0.80680000       1.15740000
C       -0.79170000      -2.18790000      -0.02740000
C       -1.37110000      -3.31800000      -0.82600000
C       -1.48670000      -3.30990000       0.68570000
C       -1.31920000      -0.73840000      -0.07560000
H        0.78940000       1.75930000       0.07210000
H        0.53970000      -0.98640000      -1.98910000
H        1.95080000      -0.45390000      -1.00910000
H        1.36540000      -2.80520000       0.14080000
H        1.77110000      -0.44130000       1.34120000
H        0.22700000      -0.96430000       2.10090000
H       -2.26930000      -3.13150000      -1.40630000
H       -0.69010000      -4.03190000      -1.27960000
H       -0.88320000      -4.01830000       1.24520000
H       -2.46250000      -3.11800000       1.12070000
H       -1.97440000      -0.48430000       0.76330000
H       -1.83900000      -0.49380000      -1.00690000
