15
Properties=species:S:1:pos:R:3 gdb_10891=T pbc="F F F"
C       -0.02990000       1.52170000       0.06160000
C        0.12760000       0.03630000      -0.02000000
N       -0.80040000      -0.91130000       0.61060000
C        0.66380000      -0.94600000       0.99140000
C        1.29660000      -1.76280000      -0.10980000
O        2.06150000      -2.68000000      -0.14570000
C        0.70360000      -0.78520000      -1.19870000
O       -0.18410000      -1.25150000      -2.16640000
H        0.90200000       2.02900000      -0.20720000
H       -0.80890000       1.86570000      -0.62740000
H       -0.30940000       1.83710000       1.07270000
H       -1.28060000      -0.43090000       1.37210000
H        0.96560000      -0.79940000       2.02080000
H        1.52560000      -0.27370000      -1.71130000
H       -0.92400000      -1.64090000      -1.68130000
