15
Properties=species:S:1:pos:R:3 gdb_19549=T pbc="F F F"
O       -0.18060000       0.03560000       0.16940000
C       -0.00330000       1.20810000      -0.05820000
C        1.27270000       1.90560000      -0.01900000
C        1.67030000       3.27560000       0.52560000
C        2.79010000       2.56600000       1.27490000
N        2.69150000       1.40940000       0.30020000
C        3.12810000       2.07430000      -0.99010000
C        1.88860000       2.95740000      -0.93880000
H       -0.84530000       1.88830000      -0.33130000
H        1.00380000       4.06640000       0.84690000
H        3.77900000       3.03450000       1.32450000
H        2.48400000       2.22980000       2.26750000
H        4.11790000       2.54140000      -0.94750000
H        3.09140000       1.34620000      -1.80270000
H        1.38720000       3.50730000      -1.72560000
