16
Properties=species:S:1:pos:R:3 gdb_131197=T pbc="F F F"
O        0.11000000       1.37190000       0.02930000
C        0.10470000       0.02650000      -0.06530000
C        0.07860000      -0.75380000      -1.20060000
C        0.00890000      -0.80000000      -2.69300000
C        0.35270000      -2.29780000      -2.98060000
C        0.01190000      -3.07440000      -1.68090000
N        0.09240000      -2.01120000      -0.68970000
N        0.11950000      -2.04170000       0.63710000
N        0.13330000      -0.77760000       1.02500000
H        0.14110000       1.57820000       0.97230000
H       -0.99410000      -0.54340000      -3.05530000
H        0.71000000      -0.12010000      -3.18330000
H       -0.18420000      -2.69380000      -3.84440000
H        1.42290000      -2.39020000      -3.18360000
H       -0.99910000      -3.49580000      -1.69520000
H        0.71790000      -3.87450000      -1.45130000
