19
Properties=species:S:1:pos:R:3 gdb_74915=T pbc="F F F"
C       -0.17250000       1.56640000       0.05350000
C        0.01210000       0.08010000      -0.05460000
C       -0.04270000      -0.58060000      -1.21470000
C        0.17560000      -2.06170000      -1.23420000
O        1.51860000      -2.43960000      -0.74130000
C        0.92540000      -3.10590000       0.36930000
C        0.06550000      -2.16760000       1.17950000
C        0.29160000      -0.65700000       1.23970000
C       -0.48070000      -2.82250000      -0.07060000
H        0.70970000       2.04250000       0.50100000
H       -0.34680000       2.02500000      -0.92330000
H       -1.02070000       1.81190000       0.70590000
H       -0.22630000      -0.05830000      -2.14900000
H        0.01670000      -2.50950000      -2.21770000
H        1.41760000      -3.99230000       0.75240000
H       -0.30120000      -2.61620000       2.09940000
H        1.32580000      -0.44840000       1.54830000
H       -0.34090000      -0.22810000       2.02830000
H       -1.37580000      -3.42690000      -0.12270000
