15
Properties=species:S:1:pos:R:3 gdb_66973=T pbc="F F F"
O       -0.16770000       1.35130000       0.06180000
C       -0.00340000      -0.00780000       0.03680000
C       -0.22310000      -0.86700000      -1.21760000
N        0.55520000      -2.10670000      -1.01260000
C        0.03470000      -2.05480000       0.39570000
C       -1.10970000      -1.03720000      -0.00650000
C        0.83590000      -0.86130000       1.00450000
C        2.29050000      -0.85870000       0.91880000
N        3.44470000      -0.81790000       0.86890000
H        0.55840000       1.76110000      -0.42350000
H       -0.41920000      -0.41980000      -2.18350000
H        0.06360000      -2.86190000      -1.48980000
H       -0.06290000      -2.98830000       0.94250000
H       -2.17070000      -0.96170000       0.18710000
H        0.51850000      -0.66600000       2.03200000
