24
Properties=species:S:1:pos:R:3 gdb_60368=T pbc="F F F"
C        0.02220000       1.51150000      -0.15890000
C        0.03630000      -0.01190000       0.02770000
C        0.81380000      -0.39110000       1.29710000
C       -1.40090000      -0.56430000       0.02680000
C       -1.48710000      -2.09790000      -0.00230000
N       -2.84580000      -2.60910000      -0.08370000
C       -3.57800000      -2.48010000      -1.33180000
C       -3.43430000      -3.22790000       0.97950000
O       -4.56070000      -3.67890000       1.00490000
H        1.03950000       1.91390000      -0.20090000
H       -0.49090000       1.79690000      -1.08330000
H       -0.49450000       2.00300000       0.67400000
H        0.56210000      -0.44990000      -0.83380000
H        0.91790000      -1.47390000       1.41560000
H        1.82330000       0.03200000       1.27460000
H        0.31280000      -0.00290000       2.19220000
H       -1.94020000      -0.19620000       0.91010000
H       -1.92880000      -0.16280000      -0.84640000
H       -0.91150000      -2.48330000      -0.85630000
H       -1.03370000      -2.51820000       0.90040000
H       -2.99960000      -2.90720000      -2.15980000
H       -4.51690000      -3.02300000      -1.22170000
H       -3.79890000      -1.43310000      -1.56800000
H       -2.74890000      -3.27960000       1.84900000
