16
Properties=species:S:1:pos:R:3 gdb_14315=T pbc="F F F"
O        0.05920000      -0.00810000       0.13300000
C        0.00470000       1.19420000       0.03850000
C       -1.30850000       2.02740000      -0.08380000
C       -0.81290000       3.43870000      -0.40380000
C       -0.79090000       4.70000000       0.53420000
C        0.75610000       4.83490000       0.24420000
C        0.66750000       3.38320000      -0.14530000
C        1.13760000       2.16280000       0.12740000
H       -1.98100000       1.58790000      -0.82390000
H       -1.81590000       1.97900000       0.88670000
H       -1.05710000       3.75010000      -1.42500000
H       -1.42290000       5.54490000       0.25340000
H       -0.97220000       4.43290000       1.57790000
H        0.93660000       5.49990000      -0.60620000
H        1.42780000       5.10580000       1.06100000
H        2.12070000       1.87190000       0.47350000
