16
Properties=species:S:1:pos:R:3 gdb_11342=T pbc="F F F"
C       -0.03300000       1.41900000      -0.07050000
N       -0.06070000      -0.02230000       0.08830000
C        0.62240000      -0.62660000       1.09770000
C        1.24310000      -0.10630000       2.17670000
C        1.77370000      -1.19470000       2.98260000
N        2.41890000      -1.12130000       4.07080000
O        1.46220000      -2.39540000       2.35310000
C        0.73100000      -2.13160000       1.16580000
H        0.98240000       1.80560000      -0.23790000
H       -0.66240000       1.70020000      -0.91690000
H       -0.43520000       1.89830000       0.82800000
H       -0.20330000      -0.56350000      -0.74910000
H        1.36240000       0.92900000       2.45150000
H        2.66530000      -2.05540000       4.39950000
H       -0.25550000      -2.61240000       1.21980000
H        1.26550000      -2.55030000       0.30080000
