19
Properties=species:S:1:pos:R:3 gdb_36866=T pbc="F F F"
C        0.29770000       1.11860000       0.82330000
C       -0.06680000      -0.06430000      -0.06020000
C       -1.48420000      -0.31640000      -0.41960000
N       -0.52760000       0.14850000      -1.43790000
C        1.56090000       1.78720000       0.37620000
N        2.69550000       1.72720000       0.94110000
C        3.61710000       2.52470000       0.11740000
C        2.75860000       3.00840000      -1.08080000
O        1.43560000       2.51290000      -0.77440000
H       -0.51330000       1.85630000       0.80030000
H        0.43520000       0.79060000       1.85640000
H        0.60270000      -0.91570000       0.04410000
H       -1.84310000      -1.33250000      -0.55690000
H       -2.23110000       0.37850000      -0.04260000
H       -0.63960000       1.14460000      -1.61000000
H        4.01980000       3.35430000       0.70880000
H        4.46600000       1.90990000      -0.19820000
H        2.70370000       4.09600000      -1.17570000
H        3.07020000       2.58340000      -2.03930000
