16
Properties=species:S:1:pos:R:3 gdb_80230=T pbc="F F F"
C       -0.18460000       1.61950000      -0.01340000
C        0.00750000       0.11090000       0.00760000
C        1.18880000      -0.54860000      -0.77600000
N        2.34180000       0.12400000      -0.14710000
C        2.09570000       0.03450000       1.22760000
O        2.84050000       0.31820000       2.12960000
C        0.68950000      -0.58380000       1.25050000
C        0.97150000      -1.73140000       0.21520000
O        0.92240000      -2.91740000       0.19630000
H        0.75060000       2.15150000       0.17140000
H       -0.57380000       1.93830000      -0.98560000
H       -0.90860000       1.92030000       0.74980000
H       -0.92800000      -0.40350000      -0.23490000
H        1.23310000      -0.62690000      -1.85930000
H        3.28410000       0.00090000      -0.48910000
H        0.21870000      -0.72810000       2.21740000
