21
Properties=species:S:1:pos:R:3 gdb_63125=T pbc="F F F"
C       -0.01020000       1.54700000      -0.03880000
C        0.03630000       0.02850000       0.00680000
C       -1.19730000      -0.60100000      -0.62730000
C        1.29520000      -0.75180000      -0.18810000
C        2.54210000      -0.07060000       0.38420000
C        1.85930000       0.01670000       1.78430000
C        0.61630000      -0.69040000       1.22970000
C       -0.05310000      -1.76990000       1.96250000
O        0.22160000      -2.07530000       3.10310000
H        0.87430000       2.01960000       0.39020000
H       -0.09860000       1.88760000      -1.07680000
H       -0.88430000       1.91880000       0.50700000
H       -1.31100000      -0.23140000      -1.65230000
H       -1.13490000      -1.69090000      -0.67810000
H       -2.10780000      -0.33930000      -0.07780000
H        1.31060000      -1.61010000      -0.85140000
H        3.41050000      -0.73180000       0.38960000
H        2.82960000       0.87140000      -0.09250000
H        2.35020000      -0.60240000       2.53580000
H        1.70550000       1.01390000       2.20460000
H       -0.84130000      -2.32100000       1.40670000
