21
Properties=species:S:1:pos:R:3 gdb_66644=T pbc="F F F"
C        0.03830000       1.55130000       0.02810000
C       -0.01000000       0.06020000       0.00000000
C        0.92130000      -0.98520000      -0.56890000
C        0.53930000      -1.00090000       0.92530000
C       -0.77910000      -1.78400000       0.97690000
C       -0.67680000      -3.26920000       0.60110000
C       -0.28950000      -3.25330000      -0.91280000
C       -0.20650000      -1.76050000      -1.26240000
C       -1.15980000      -0.97740000      -0.30490000
H        1.04350000       1.90160000       0.28860000
H       -0.21900000       1.98350000      -0.94640000
H       -0.65710000       1.96540000       0.76820000
H        1.95220000      -0.86820000      -0.88170000
H        1.29280000      -0.89540000       1.69680000
H       -1.37970000      -1.56420000       1.86210000
H        0.06270000      -3.79050000       1.21740000
H       -1.63440000      -3.77880000       0.75450000
H        0.65780000      -3.76590000      -1.10840000
H       -1.05310000      -3.75520000      -1.51720000
H       -0.30960000      -1.52030000      -2.32260000
H       -2.19330000      -0.75730000      -0.56690000
