16
Properties=species:S:1:pos:R:3 gdb_71058=T pbc="F F F"
C       -0.11070000       1.46300000      -0.05410000
C       -0.10190000      -0.02380000       0.04060000
O       -0.34470000      -0.76570000      -1.24900000
C       -0.33810000      -1.84830000      -0.36330000
N        0.62740000      -2.66980000      -0.32860000
C        1.30460000      -2.27050000       0.94520000
C        0.68560000      -0.86960000       1.20880000
O        1.16010000      -0.07020000       2.23370000
C       -0.76910000      -1.02150000       0.88330000
H        0.65220000       1.80430000      -0.75950000
H       -1.08650000       1.82330000      -0.39360000
H        0.11130000       1.88280000       0.92950000
H        1.14610000      -2.93790000       1.80860000
H        2.37690000      -2.24390000       0.72690000
H        0.92660000      -0.47320000       3.07890000
H       -1.67750000      -1.04150000       1.47250000
