12
Properties=species:S:1:pos:R:3 gdb_426=T pbc="F F F"
N        0.07970000       1.48700000       0.14710000
C       -0.01170000       0.05300000      -0.00850000
C       -1.42160000      -0.55990000      -0.17380000
O       -0.99470000      -1.23080000      -1.40090000
C        0.24460000      -0.62260000      -1.35790000
N        1.18820000      -0.61970000      -2.18280000
H        1.05350000       1.76050000       0.23470000
H       -0.27040000       1.95390000      -0.68540000
H        0.55820000      -0.42630000       0.79230000
H       -1.75120000      -1.27900000       0.57890000
H       -2.21030000       0.16940000      -0.37900000
H        0.96770000      -1.17560000      -3.01120000
