18
Properties=species:S:1:pos:R:3 gdb_99489=T pbc="F F F"
C       -0.24190000       1.43330000       0.16770000
N       -0.19660000      -0.00930000       0.32300000
C        0.91280000      -0.65680000       0.74950000
O        1.96140000      -0.11200000       1.04100000
C        0.81840000      -2.20200000       0.84610000
C        1.37990000      -2.68530000       2.20470000
N        1.54520000      -4.13420000       2.19380000
C       -0.52390000      -2.72790000       0.61020000
N       -1.60170000      -3.11200000       0.43780000
H        0.74420000       1.82320000       0.42030000
H       -0.48580000       1.70840000      -0.86360000
H       -0.98660000       1.87820000       0.83610000
H       -1.02590000      -0.54670000       0.12340000
H        1.47820000      -2.60410000       0.06820000
H        2.35650000      -2.20910000       2.31080000
H        0.73380000      -2.29770000       3.00890000
H        2.09490000      -4.42410000       2.99550000
H        0.64420000      -4.59610000       2.27940000
