17
Properties=species:S:1:pos:R:3 gdb_34375=T pbc="F F F"
N       -0.05110000      -1.09310000      -0.39280000
C       -0.03810000       0.04210000      -0.16950000
C       -0.01490000       1.46700000       0.09730000
C       -0.30460000       2.35590000      -1.16050000
N        1.07110000       2.92600000      -1.14530000
C        1.40160000       2.15890000       0.09340000
C        1.37910000       3.00030000       1.33900000
C        0.25080000       2.85850000       2.03200000
C       -0.71130000       1.86410000       1.42510000
H       -0.56190000       1.79340000      -2.06120000
H       -1.07540000       3.11340000      -0.98370000
H        1.61320000       2.59980000      -1.93820000
H        2.28060000       1.51340000       0.00660000
H        2.19640000       3.66450000       1.59460000
H        0.01390000       3.38530000       2.94990000
H       -1.70340000       2.29490000       1.24270000
H       -0.86450000       0.99630000       2.07680000
