17
Properties=species:S:1:pos:R:3 gdb_29866=T pbc="F F F"
C       -0.02860000       1.47930000       0.00770000
N        0.00160000       0.02800000      -0.00280000
C       -0.02920000      -0.68400000      -1.15450000
N       -0.01360000      -1.97420000      -1.24580000
C        0.04050000      -2.73800000      -0.08360000
N        0.02690000      -4.02420000      -0.05590000
C        0.10570000      -2.02330000       1.20720000
N        0.23250000      -2.81820000       2.32080000
C        0.07010000      -0.66850000       1.20450000
H        0.87260000       1.88460000       0.48110000
H       -0.07770000       1.84530000      -1.01900000
H       -0.90520000       1.84730000       0.55250000
H       -0.07420000      -0.08640000      -2.06300000
H       -0.02920000      -4.38120000      -1.01010000
H        0.01160000      -3.78540000       2.11360000
H       -0.11230000      -2.46350000       3.19840000
H        0.10230000      -0.06160000       2.10000000
