17
Properties=species:S:1:pos:R:3 gdb_33220=T pbc="F F F"
O        0.09860000       1.26480000      -0.39450000
C       -0.07850000      -0.04270000       0.13970000
C       -1.56940000      -0.33160000       0.12210000
N       -2.04950000      -0.25610000      -1.25760000
C       -3.37920000      -0.49510000      -1.51850000
C       -4.30260000       0.01950000      -2.37790000
N       -5.47960000      -0.71810000      -2.26750000
C       -5.22670000      -1.60240000      -1.36820000
O       -3.95850000      -1.53980000      -0.85790000
H        1.03550000       1.40740000      -0.55470000
H        0.44560000      -0.79330000      -0.46890000
H        0.29440000      -0.10900000       1.17230000
H       -1.75260000      -1.33630000       0.51190000
H       -2.08590000       0.38460000       0.78050000
H       -1.71270000       0.58490000      -1.70830000
H       -4.20700000       0.85050000      -3.05690000
H       -5.86950000      -2.36400000      -0.95850000
