17
Properties=species:S:1:pos:R:3 gdb_85382=T pbc="F F F"
C       -0.17550000       1.45180000       0.08310000
C       -0.03650000      -0.05690000      -0.02740000
C        0.77570000      -0.50920000      -1.23980000
C        1.03470000      -2.01010000      -1.22260000
O        1.45710000      -2.62060000      -2.17060000
C        0.71450000      -2.67970000       0.11060000
C        0.98510000      -1.79250000       1.31650000
O        1.49870000      -2.17580000       2.32880000
O        0.60770000      -0.49580000       1.19200000
H        0.81020000       1.92270000       0.13940000
H       -0.70350000       1.84780000      -0.78920000
H       -0.73670000       1.71740000       0.98210000
H       -1.03660000      -0.51190000      -0.06390000
H        0.28020000      -0.24130000      -2.17730000
H        1.75070000      -0.00390000      -1.23560000
H       -0.36240000      -2.90680000       0.09990000
H        1.25190000      -3.62090000       0.21590000
