20
Properties=species:S:1:pos:R:3 gdb_107541=T pbc="F F F"
C        0.10440000       1.51360000       0.19220000
C       -0.03660000       0.01930000      -0.12930000
C       -1.46000000      -0.45310000      -0.03390000
C       -2.06590000      -1.00340000       1.19990000
N       -1.85830000      -1.91810000       0.06090000
C       -2.99530000      -1.62110000      -0.87750000
C       -2.53180000      -0.15020000      -1.10260000
C       -3.48980000       0.98410000      -0.85140000
O       -3.69390000       1.88730000      -1.62320000
H        1.14560000       1.83570000       0.10120000
H       -0.49360000       2.12550000      -0.49160000
H       -0.22880000       1.73130000       1.21220000
H        0.34280000      -0.18170000      -1.13910000
H        0.57500000      -0.57780000       0.55700000
H       -1.39120000      -1.19960000       2.02770000
H       -3.08200000      -0.75870000       1.50080000
H       -2.92420000      -2.23220000      -1.77800000
H       -3.98380000      -1.76190000      -0.42600000
H       -2.08720000      -0.00850000      -2.08980000
H       -4.01910000       0.94400000       0.12840000
