20
Properties=species:S:1:pos:R:3 gdb_117258=T pbc="F F F"
C       -0.14880000       1.54770000      -0.25740000
C       -0.03820000       0.05490000      -0.01100000
O        0.65020000      -0.51900000      -1.13500000
C        0.84990000      -1.84990000      -1.10610000
N        0.45010000      -2.56470000      -0.13390000
C        1.58140000      -2.30700000      -2.34700000
C        2.77290000      -3.26200000      -2.07930000
O        2.02130000      -4.40440000      -2.53680000
C        0.96900000      -3.55380000      -3.03530000
H        0.84120000       2.00320000      -0.35190000
H       -0.70970000       1.75270000      -1.17370000
H       -0.66880000       2.02460000       0.57870000
H        0.52090000      -0.17330000       0.90240000
H       -1.01900000      -0.42210000       0.08640000
H        0.68920000      -3.54400000      -0.28640000
H        1.78690000      -1.45600000      -2.99440000
H        3.65070000      -3.06920000      -2.70920000
H        3.08590000      -3.36370000      -1.03500000
H       -0.01870000      -3.86590000      -2.68030000
H        0.96680000      -3.50340000      -4.13160000
