18
Properties=species:S:1:pos:R:3 gdb_32930=T pbc="F F F"
C       -0.01000000       1.39180000       0.08370000
C        0.02330000      -0.12390000       0.03530000
O        0.67580000      -0.49870000      -1.18460000
C        0.81770000      -1.80470000      -1.43870000
C        1.38890000      -2.42770000      -2.50470000
C        1.25270000      -3.83200000      -2.23630000
C        0.61980000      -3.96920000      -1.04620000
N        0.23190000      -5.08340000      -0.30700000
O        0.34190000      -2.69310000      -0.53720000
H        1.00340000       1.80210000       0.06400000
H       -0.56130000       1.79440000      -0.77050000
H       -0.50170000       1.72410000       1.00260000
H        0.57340000      -0.53950000       0.88820000
H       -0.98810000      -0.54720000       0.05540000
H        1.84060000      -1.94890000      -3.35690000
H        1.58640000      -4.65010000      -2.85500000
H        0.67650000      -5.12540000       0.60490000
H       -0.77260000      -5.13370000      -0.16800000
