16
Properties=species:S:1:pos:R:3 gdb_132969=T pbc="F F F"
C       -0.21780000       1.47840000       0.02090000
N       -0.02690000       0.03740000      -0.00170000
C        0.15970000      -0.64180000      -1.18200000
C        0.46710000      -1.95760000      -1.22480000
C        0.64120000      -2.76040000      -0.02410000
N        0.93360000      -4.01640000      -0.06830000
C        0.43820000      -1.96830000       1.18380000
F        0.56240000      -2.60320000       2.35630000
C        0.13080000      -0.65520000       1.18020000
H        0.72690000       2.01550000       0.17290000
H       -0.65340000       1.79980000      -0.92700000
H       -0.90780000       1.75010000       0.82420000
H        0.03460000      -0.04680000      -2.07850000
H        0.58630000      -2.45350000      -2.17980000
H        1.00660000      -4.38310000       0.88230000
H       -0.01130000      -0.10100000       2.09890000
