14
Properties=species:S:1:pos:R:3 gdb_25035=T pbc="F F F"
O        0.12520000      -0.00120000       0.03730000
C        0.03080000       1.19210000      -0.01830000
N       -1.06120000       1.98500000      -0.30250000
C       -0.70710000       3.32960000      -0.25130000
C        0.59700000       3.36920000       0.06460000
O        1.06950000       2.07920000       0.21160000
C        1.51840000       4.48670000       0.27290000
C        2.79560000       4.33320000       0.98790000
O        2.76890000       4.45510000      -0.43260000
H       -1.96640000       1.59840000      -0.50290000
H       -1.40490000       4.12620000      -0.44330000
H        1.02750000       5.45920000       0.27840000
H        3.20590000       5.18510000       1.52850000
H        3.07380000       3.35180000       1.36540000
