17
Properties=species:S:1:pos:R:3 gdb_62915=T pbc="F F F"
C       -0.14070000       1.59280000       0.40130000
C       -0.09890000       0.08440000       0.25830000
O       -1.37750000      -0.47060000       0.05600000
C        1.11970000      -0.55520000      -0.50680000
O        1.96560000      -0.16880000       0.64240000
C        0.75210000      -0.75390000       1.25000000
C        0.84040000      -1.90390000       0.20200000
C       -0.32130000      -2.77660000      -0.21100000
O       -0.49340000      -3.13290000      -1.35110000
H        0.85340000       1.98770000       0.61100000
H       -0.51140000       2.05190000      -0.52310000
H       -0.82320000       1.87380000       1.20880000
H       -1.73260000      -0.15590000      -0.78290000
H        1.50560000      -0.36590000      -1.50830000
H        0.70360000      -0.80040000       2.33840000
H        1.74750000      -2.50290000       0.32830000
H       -0.97310000      -3.13490000       0.61440000
