18
Properties=species:S:1:pos:R:3 gdb_76271=T pbc="F F F"
C       -0.30590000       1.55390000       0.08730000
C        0.05160000       0.06890000       0.01290000
C        0.82740000      -0.45200000      -1.22750000
C        1.58780000       0.60080000      -2.05040000
C        1.83740000      -1.45050000      -0.65100000
O        2.55460000      -2.20470000      -1.25820000
N        1.82300000      -1.29930000       0.73070000
C        0.89380000      -0.38330000       1.21070000
O        0.78070000      -0.04740000       2.36240000
H        0.57720000       2.19160000      -0.00520000
H       -1.01050000       1.82870000      -0.70240000
H       -0.76800000       1.76490000       1.05450000
H       -0.87990000      -0.50640000       0.09970000
H        0.16690000      -1.00230000      -1.90390000
H        2.28830000       1.17030000      -1.43120000
H        2.16160000       0.10140000      -2.83470000
H        0.89690000       1.30620000      -2.51880000
H        2.46180000      -1.79430000       1.33750000
