15
Properties=species:S:1:pos:R:3 gdb_128675=T pbc="F F F"
C       -0.02180000       1.40410000       0.00900000
O        0.02080000      -0.02160000      -0.03690000
C        0.62850000      -0.56670000      -1.10510000
N        1.14860000       0.15120000      -2.04400000
N        1.72170000      -0.53850000      -3.04920000
C        1.80590000      -1.92490000      -3.16830000
N        2.38650000      -2.42590000      -4.18750000
N        1.22310000      -2.65970000      -2.11880000
C        0.67210000      -2.01290000      -1.15360000
H        0.98930000       1.82340000       0.01730000
H       -0.55860000       1.80540000      -0.85650000
H       -0.54540000       1.65480000       0.93150000
H        2.12910000       0.02020000      -3.78320000
H        2.35830000      -3.44060000      -4.11640000
H        0.21800000      -2.57200000      -0.33590000
