15
Properties=species:S:1:pos:R:3 gdb_11945=T pbc="F F F"
O       -0.15600000       1.35800000      -0.03890000
C       -0.05410000      -0.00360000      -0.00940000
C       -0.24030000      -0.92350000      -1.15330000
C       -1.13940000      -1.16410000       0.04510000
N       -0.35580000      -1.86040000       1.08090000
C        0.58550000      -0.69230000       1.18900000
C       -2.58460000      -1.00240000       0.00290000
O       -3.18610000      -0.45550000      -0.89950000
H       -0.35480000       1.64450000      -0.93680000
H       -0.78280000      -0.50070000      -1.99510000
H        0.49680000      -1.68640000      -1.39520000
H       -0.89470000      -1.96070000       1.93680000
H        1.64410000      -0.95960000       1.09990000
H        0.43290000      -0.10250000       2.09760000
H       -3.11790000      -1.38410000       0.90430000
