18
Properties=species:S:1:pos:R:3 gdb_78459=T pbc="F F F"
C       -0.07010000       1.40830000      -0.03870000
N        0.01830000      -0.04720000       0.00950000
C        1.37590000      -0.58250000      -0.19150000
C        0.76240000      -0.57480000       1.16610000
C        0.63560000      -2.09130000       1.37920000
O        1.95760000      -2.56290000       0.89990000
C        1.44560000      -2.10140000      -0.41330000
C        0.05740000      -2.64220000       0.04170000
O       -0.05400000      -4.03450000      -0.00080000
H        0.82090000       1.92140000       0.36110000
H       -0.21030000       1.72300000      -1.07720000
H       -0.94090000       1.73210000       0.53930000
H        2.18100000       0.08120000      -0.48720000
H        1.07540000       0.09490000       1.95940000
H        0.36070000      -2.48370000       2.35750000
H        1.99640000      -2.50410000      -1.26250000
H       -0.84890000      -2.20820000      -0.37020000
H        0.76960000      -4.37660000       0.37330000
