15
Properties=species:S:1:pos:R:3 gdb_43892=T pbc="F F F"
N        0.02030000       1.03620000      -0.62290000
C       -0.04180000      -0.09980000      -0.10620000
O        0.95470000      -0.89810000       0.44680000
C        0.02600000      -2.01530000       0.66150000
C       -0.65270000      -1.96050000       2.05320000
N       -1.64900000      -0.97160000       1.55110000
C       -1.14530000      -1.10440000       0.16010000
C        0.48340000      -3.25710000       0.11030000
C        0.83830000      -4.31420000      -0.33850000
H        0.96970000       1.41230000      -0.60030000
H       -1.07900000      -2.92890000       2.33400000
H       -0.01600000      -1.58900000       2.86110000
H       -2.60570000      -1.28720000       1.64910000
H       -1.85580000      -1.34300000      -0.62930000
H        1.16090000      -5.24360000      -0.73990000
