18
Properties=species:S:1:pos:R:3 gdb_53984=T pbc="F F F"
C        0.31980000       1.62990000       0.07610000
C        0.08200000       0.11610000      -0.06410000
O        0.66140000      -0.59850000       1.02130000
C       -1.42130000      -0.21280000      -0.18380000
C       -2.22030000       0.01590000       1.07240000
O       -1.75130000       0.21720000       2.17100000
C        0.75990000      -0.34860000      -1.36990000
N        1.80810000      -1.18490000      -1.19620000
O        0.35670000       0.04080000      -2.45220000
H        1.38760000       1.81800000       0.21730000
H       -0.01060000       2.14860000      -0.82690000
H       -0.21730000       2.02770000       0.94100000
H        0.16370000      -0.33960000       1.81010000
H       -1.87210000       0.33860000      -1.01560000
H       -1.55660000      -1.27610000      -0.43540000
H       -3.32270000      -0.03960000       0.94180000
H        2.05480000      -1.48870000      -0.26960000
H        2.29510000      -1.53100000      -2.00550000
