12
Properties=species:S:1:pos:R:3 gdb_23804=T pbc="F F F"
F        0.01800000       0.02320000       0.00370000
C       -0.03390000       1.34030000       0.01080000
C       -1.20540000       2.00790000       0.02970000
C       -1.17400000       3.44100000       0.03630000
N       -0.07490000       4.13100000       0.02510000
N        1.07190000       3.42340000       0.00640000
C        1.25040000       2.03400000      -0.00280000
N        2.36440000       1.40360000      -0.02070000
H       -2.14500000       1.46910000       0.03950000
H       -2.09300000       4.01490000       0.05130000
H        1.90120000       3.99920000      -0.00180000
H        3.16090000       2.04250000      -0.02820000
