17
Properties=species:S:1:pos:R:3 gdb_64598=T pbc="F F F"
C        0.02790000       1.67050000      -0.22670000
C        0.06950000       0.14080000      -0.07620000
C       -1.36440000      -0.36850000      -0.26290000
O       -2.07810000      -0.73670000       0.63200000
N        0.89790000      -0.46580000      -1.14530000
C        1.72880000      -1.24490000      -0.57500000
N        1.68820000      -1.40060000       0.83980000
C        2.09730000      -0.13520000       1.51600000
C        0.66880000      -0.39040000       1.22690000
H        1.03950000       2.08160000      -0.18500000
H       -0.40880000       1.94980000      -1.19000000
H       -0.56880000       2.11830000       0.57340000
H       -1.70310000      -0.34960000      -1.32060000
H        2.46420000      -1.82440000      -1.12620000
H        2.47210000      -0.27070000       2.52540000
H        2.63660000       0.59170000       0.91530000
H       -0.01390000      -0.67400000       2.01900000
