20
Properties=species:S:1:pos:R:3 gdb_102627=T pbc="F F F"
C       -0.15560000       1.53660000      -0.15160000
N        0.08880000       0.09620000      -0.05690000
H        0.62460000      -0.10820000       0.78300000
H       -1.27960000      -0.97880000      -0.25590000
C        0.81900000      -0.49560000      -1.19740000
C        2.31830000      -0.17910000      -1.15040000
O        2.80480000      -0.67010000       0.09190000
C        0.57710000      -2.01760000      -1.22810000
C       -0.88480000      -2.45110000      -1.38340000
O       -1.77390000      -1.72400000      -0.69520000
O       -1.20950000      -3.39530000      -2.05570000
H        0.75510000       2.13970000      -0.27940000
H       -0.81850000       1.73550000      -0.99940000
H       -0.66130000       1.87380000       0.75690000
H        0.40860000      -0.05010000      -2.11200000
H        2.82260000      -0.65850000      -2.00220000
H        2.47800000       0.90610000      -1.23600000
H        3.74090000      -0.46520000       0.16360000
H        1.13290000      -2.47300000      -2.05020000
H        0.96740000      -2.45310000      -0.30040000
