23
Properties=species:S:1:pos:R:3 gdb_104850=T pbc="F F F"
C        0.75950000       0.14200000       1.00040000
C       -0.07920000      -0.08670000      -0.26280000
C       -1.46100000      -0.69920000      -0.02410000
C       -2.35390000       0.07540000       0.94710000
C       -2.65250000       1.51230000       0.50770000
O       -2.15040000      -0.86210000      -1.30750000
C       -2.12500000      -2.29610000      -1.21090000
C       -1.48160000      -2.24160000       0.18970000
O       -0.20550000      -2.82220000       0.33800000
H        1.74930000       0.52600000       0.73470000
H        0.29740000       0.87000000       1.67480000
H        0.89870000      -0.79360000       1.54790000
H       -0.23090000       0.85810000      -0.79700000
H        0.46460000      -0.74500000      -0.94610000
H       -3.29890000      -0.47420000       1.03660000
H       -1.89290000       0.06380000       1.94270000
H       -1.75750000       2.14160000       0.52680000
H       -3.05220000       1.52160000      -0.51040000
H       -3.39310000       1.97250000       1.16860000
H       -3.12810000      -2.73530000      -1.28030000
H       -1.47250000      -2.75540000      -1.96510000
H       -2.15150000      -2.54980000       1.00230000
H       -0.31580000      -3.76580000       0.48870000
