19
Properties=species:S:1:pos:R:3 gdb_97501=T pbc="F F F"
C        0.30560000       1.39950000       0.04260000
C       -0.04670000      -0.09980000      -0.04230000
C       -1.55700000      -0.33790000      -0.07770000
C        0.63710000      -0.72440000      -1.25710000
O        0.03020000      -1.15690000      -2.21450000
C        2.08870000      -0.77410000      -1.20770000
C        3.29520000      -0.82700000      -1.16550000
C        4.75100000      -0.95430000      -1.16730000
O        5.30110000      -1.21270000      -2.44630000
H        1.38690000       1.55810000       0.06930000
H       -0.09860000       1.94090000      -0.81920000
H       -0.12610000       1.83510000       0.94830000
H        0.38660000      -0.59070000       0.84070000
H       -2.00200000       0.12880000      -0.96060000
H       -1.79110000      -1.40470000      -0.11870000
H       -2.02750000       0.08730000       0.81390000
H        5.20710000      -0.01860000      -0.82470000
H        5.03380000      -1.72800000      -0.43440000
H        4.83040000      -1.96370000      -2.82350000
