17
Properties=species:S:1:pos:R:3 gdb_23156=T pbc="F F F"
C       -0.44800000       1.42770000       0.02430000
C        0.02580000      -0.01660000      -0.03400000
C        1.30070000      -0.26150000      -0.90810000
C        2.06590000      -0.56270000       0.35900000
N        3.27190000      -0.72490000       0.70040000
O        4.12390000      -0.65950000      -0.40770000
C        0.82120000      -0.53800000       1.23910000
C        0.83770000       0.29790000       2.42850000
N        0.83120000       0.97690000       3.36410000
H        0.37320000       2.10730000       0.27420000
H       -0.85320000       1.72960000      -0.94680000
H       -1.22970000       1.56180000       0.77770000
H       -0.80570000      -0.68040000      -0.27890000
H        1.23520000      -1.11050000      -1.59520000
H        1.66580000       0.60390000      -1.46870000
H        4.99290000      -0.77000000      -0.00570000
H        0.50730000      -1.54840000       1.52310000
