18
Properties=species:S:1:pos:R:3 gdb_47744=T pbc="F F F"
O        0.05790000       0.07570000       0.48470000
C        0.03440000       1.20400000       0.05780000
O       -1.14280000       1.73790000      -0.32600000
C       -1.23270000       2.99530000      -1.02600000
C       -0.13250000       3.97960000      -0.66180000
C        1.22410000       3.30500000      -0.86910000
C        1.27660000       2.05750000      -0.01440000
C        2.09610000       2.00510000       1.24210000
N        2.54420000       1.31980000       0.03340000
H       -1.20870000       2.77750000      -2.10160000
H       -2.22550000       3.38140000      -0.78280000
H       -0.23790000       4.87220000      -1.28690000
H       -0.24500000       4.29520000       0.38230000
H        1.34780000       3.03300000      -1.92530000
H        2.05510000       3.96820000      -0.61430000
H        2.66950000       2.88640000       1.51830000
H        1.71540000       1.40930000       2.06570000
H        2.31540000       0.32960000       0.12250000
