17
Properties=species:S:1:pos:R:3 gdb_12479=T pbc="F F F"
N       -0.27290000       0.91400000      -0.68310000
C        0.03490000       0.03800000       0.17030000
O        1.28630000      -0.48800000       0.29240000
C        1.52690000      -1.38880000       1.38560000
C        0.93640000      -2.78620000       1.12880000
C       -0.38030000      -2.72930000       0.33830000
C       -1.39560000      -1.73160000       0.88880000
O       -0.86380000      -0.40600000       1.08190000
H        0.55610000       1.17930000      -1.21470000
H        2.61450000      -1.43100000       1.47540000
H        1.11980000      -0.95610000       2.30230000
H        1.65100000      -3.40030000       0.57130000
H        0.78510000      -3.27800000       2.09710000
H       -0.16200000      -2.47420000      -0.70450000
H       -0.85200000      -3.71780000       0.31890000
H       -2.25940000      -1.66210000       0.21640000
H       -1.75320000      -2.03140000       1.87850000
