17
Properties=species:S:1:pos:R:3 gdb_133706=T pbc="F F F"
C        0.02680000       1.47470000      -0.13190000
C        0.13680000      -0.02970000      -0.04990000
C        1.47610000      -0.72350000      -0.12970000
C        0.73940000      -0.69430000       1.18240000
N        1.27250000       0.03490000       2.29970000
C        0.10520000      -1.98830000       1.64150000
F        0.98970000      -2.80380000       2.22570000
F       -0.87130000      -1.75080000       2.53470000
F       -0.44710000      -2.66880000       0.61770000
H        0.85040000       1.96720000       0.39320000
H        0.04910000       1.81020000      -1.17380000
H       -0.91060000       1.82920000       0.31090000
H       -0.68440000      -0.57170000      -0.50720000
H        1.54260000      -1.66510000      -0.66180000
H        2.36780000      -0.10720000      -0.19650000
H        2.11960000       0.53410000       2.06730000
H        0.60170000       0.68790000       2.68740000
