15
Properties=species:S:1:pos:R:3 gdb_131056=T pbc="F F F"
O        0.79890000       1.03960000      -1.42670000
C        0.36860000       1.44020000      -0.36310000
N        1.07620000       1.44990000       0.79480000
C        2.47530000       1.02470000       0.82680000
C        3.43940000       2.04110000       0.28270000
C        3.64150000       2.40600000      -1.01450000
O        4.58200000       3.35380000      -1.09740000
N        5.04750000       3.64890000       0.18120000
C        4.36310000       2.86930000       0.98090000
H       -0.66080000       1.82600000      -0.23250000
H        0.68170000       1.90990000       1.59950000
H        2.72730000       0.78410000       1.86250000
H        2.54050000       0.10120000       0.24590000
H        3.18300000       2.08820000      -1.93740000
H        4.55410000       2.91520000       2.04490000
