21
Properties=species:S:1:pos:R:3 gdb_90409=T pbc="F F F"
C       -0.18580000       1.46100000      -0.31410000
C        0.21980000       0.00590000      -0.19590000
O        1.38060000      -0.39920000      -0.98430000
C        1.90360000      -1.15550000       0.11410000
C        2.30570000      -0.25370000       1.26090000
C        2.92430000      -1.00890000       2.42910000
C        2.91500000       1.11350000       1.01290000
C        0.84110000      -0.60770000       1.06000000
O        0.10030000      -1.14230000       2.09640000
H       -0.43800000       1.69860000      -1.35280000
H       -1.07880000       1.63500000       0.29600000
H        0.59580000       2.14420000       0.01850000
H       -0.63070000      -0.62700000      -0.50130000
H        2.30750000      -2.14150000      -0.08870000
H        4.00850000      -1.08670000       2.29400000
H        2.73700000      -0.48610000       3.37290000
H        2.51390000      -2.01620000       2.53170000
H        2.66400000       1.48180000       0.01750000
H        2.58540000       1.84670000       1.75740000
H        4.00720000       1.04860000       1.07610000
H       -0.50870000      -1.79480000       1.73140000
