22
Properties=species:S:1:pos:R:3 gdb_13932=T pbc="F F F"
C       -0.53260000       1.29680000      -0.29540000
C        0.19490000      -0.03700000      -0.23630000
C        1.69910000      -0.10290000      -0.62060000
C        1.90130000      -1.14510000       0.50990000
C        0.56060000      -0.66990000       1.13630000
C        0.68870000       0.18970000       2.42820000
C        0.22490000      -1.04540000       3.24650000
C       -0.32600000      -1.65760000       1.93050000
H        0.00890000       2.07170000       0.25830000
H       -0.63490000       1.64140000      -1.33060000
H       -1.54110000       1.22630000       0.12900000
H       -0.35980000      -0.78330000      -0.82040000
H        1.95470000      -0.39840000      -1.64130000
H        2.20680000       0.84100000      -0.39600000
H        1.82760000      -2.17120000       0.13470000
H        2.80290000      -1.06360000       1.12410000
H        1.66990000       0.61660000       2.65600000
H       -0.05400000       0.99300000       2.46120000
H        1.07070000      -1.61720000       3.63800000
H       -0.48210000      -0.87310000       4.06130000
H       -1.39160000      -1.44050000       1.79620000
H       -0.16590000      -2.72550000       1.75310000
