17
Properties=species:S:1:pos:R:3 gdb_53909=T pbc="F F F"
N        0.85800000      -0.56720000      -0.01960000
C       -0.25190000      -0.01300000       0.51700000
O       -0.21950000       0.87390000       1.35460000
C       -1.60640000      -0.56320000       0.01540000
C       -1.49470000      -1.55440000      -1.05100000
C       -1.40450000      -2.38320000      -1.91830000
C       -2.47110000      -1.11860000       1.16520000
C       -1.87830000      -1.69470000       2.39530000
N       -2.60390000      -0.41250000       2.43500000
H        1.75600000      -0.21680000       0.27060000
H        0.79580000      -1.28000000      -0.72710000
H       -2.12830000       0.31880000      -0.38170000
H       -1.34290000      -3.11080000      -2.69000000
H       -3.40030000      -1.54140000       0.79000000
H       -2.36880000      -2.52460000       2.89610000
H       -0.79650000      -1.67820000       2.50210000
H       -1.92430000       0.34790000       2.45760000
