21
Properties=species:S:1:pos:R:3 gdb_87848=T pbc="F F F"
C       -0.00490000       1.51170000      -0.12150000
C       -0.01760000       0.01700000       0.06940000
O        1.25300000      -0.65770000      -0.00630000
C        0.55340000      -0.65570000       1.23880000
C        1.19470000       0.00640000       2.47580000
C        0.95030000      -1.13960000       3.48210000
C        1.33860000      -2.39650000       2.64740000
C        0.08520000      -1.98360000       1.81740000
C       -0.52900000      -1.52070000       3.17360000
H        0.79930000       1.97610000       0.45420000
H        0.14260000       1.76190000      -1.17740000
H       -0.95920000       1.94730000       0.19520000
H       -0.81480000      -0.50520000      -0.46550000
H        2.25510000       0.21180000       2.30570000
H        0.70240000       0.93830000       2.77110000
H        1.30700000      -0.99170000       4.50130000
H        2.30660000      -2.40470000       2.13930000
H        1.18660000      -3.32850000       3.19630000
H       -0.42350000      -2.66630000       1.13750000
H       -0.88430000      -2.35980000       3.77590000
H       -1.27740000      -0.72230000       3.15810000
