19
Properties=species:S:1:pos:R:3 gdb_63526=T pbc="F F F"
C        0.02850000       1.54490000      -0.19410000
C        0.03680000       0.04040000      -0.04730000
O       -1.10410000      -0.59700000      -0.56300000
C        1.34320000      -0.72660000      -0.10040000
C        0.56790000      -0.61380000       1.18940000
C        1.00570000       0.06870000       2.49930000
C        0.30710000      -1.08660000       3.24840000
O        0.16990000      -1.35300000       4.40600000
C       -0.12640000      -1.76600000       1.93700000
H        0.91370000       1.99690000       0.26160000
H        0.02010000       1.83020000      -1.25320000
H       -0.86260000       1.97350000       0.27620000
H       -1.08700000      -0.51090000      -1.52270000
H        1.33280000      -1.68880000      -0.60300000
H        2.26960000      -0.16790000      -0.19750000
H        2.08480000       0.11730000       2.68000000
H        0.57470000       1.05470000       2.70220000
H       -1.20930000      -1.82900000       1.79450000
H        0.30000000      -2.76470000       1.79660000
