21
Properties=species:S:1:pos:R:3 gdb_109694=T pbc="F F F"
C        0.04780000       1.08130000       0.26700000
O       -0.28750000      -0.00150000      -0.58430000
C       -1.42720000      -0.69740000      -0.18990000
C       -1.50870000      -2.08990000      -0.75980000
O       -0.45340000      -2.53920000      -1.55280000
C       -1.31400000      -1.89150000       0.74040000
C        0.00200000      -2.25670000       1.38430000
O       -2.46550000      -2.04350000       1.52590000
C       -2.82770000      -3.38930000       1.77960000
H        0.94150000       1.55150000      -0.14930000
H       -0.76410000       1.82130000       0.30200000
H        0.25760000       0.74200000       1.28930000
H       -2.33740000      -0.10230000      -0.11370000
H       -2.48300000      -2.44120000      -1.09090000
H        0.08090000      -1.76350000      -1.76650000
H        0.83530000      -1.95540000       0.74830000
H        0.09980000      -1.76220000       2.35610000
H        0.08390000      -3.33730000       1.53930000
H       -3.79990000      -3.36640000       2.27770000
H       -2.91380000      -3.96900000       0.85000000
H       -2.10820000      -3.89490000       2.43800000
