17
Properties=species:S:1:pos:R:3 gdb_72047=T pbc="F F F"
C       -0.13770000       1.43920000      -0.01460000
C        0.02380000      -0.04970000      -0.02290000
C        0.94970000      -0.89720000      -0.90120000
C        0.12440000      -2.11080000      -0.42090000
N        0.48630000      -2.17010000       1.03740000
C       -0.30080000      -0.93050000       1.17470000
C       -1.08700000      -1.11770000      -0.11810000
C       -2.45100000      -1.03960000      -0.46350000
N       -3.57380000      -0.98780000      -0.75030000
H        0.76270000       1.92250000       0.38040000
H       -0.31310000       1.82320000      -1.02450000
H       -0.98350000       1.74390000       0.61020000
H        0.79060000      -0.68150000      -1.96040000
H        2.01660000      -0.92020000      -0.66180000
H        0.07700000      -3.04800000      -0.96910000
H       -0.06110000      -2.91970000       1.46000000
H       -0.63770000      -0.53250000       2.12320000
