15
Properties=species:S:1:pos:R:3 gdb_49672=T pbc="F F F"
N       -0.20060000       1.21090000       0.46170000
C       -0.06140000       0.05460000      -0.00990000
O        1.07940000      -0.47630000      -0.54060000
C        0.90970000      -1.87360000      -0.79400000
C       -0.57920000      -2.11810000      -0.58260000
C       -1.17200000      -2.01330000       0.80230000
C       -0.31730000      -2.09130000       2.02100000
O        0.77830000      -1.59810000       2.13820000
N       -1.15470000      -0.86360000      -0.14270000
H        0.69040000       1.70570000       0.44920000
H        1.19370000      -2.08170000      -1.82940000
H        1.55560000      -2.43990000      -0.11710000
H       -1.12740000      -2.68620000      -1.32800000
H       -2.17390000      -2.41130000       0.93970000
H       -0.77710000      -2.67690000       2.84580000
