16
Properties=species:S:1:pos:R:3 gdb_39075=T pbc="F F F"
C        0.02120000       1.51640000       0.26900000
N        1.11460000       2.27470000      -0.29230000
C        1.88350000       1.98720000      -1.24820000
O        2.04780000       0.90020000      -2.06060000
C        1.42470000      -0.35670000      -1.72810000
O        0.07410000      -0.20570000      -1.41590000
C       -0.00120000       0.00030000       0.00050000
C        1.22460000      -0.70210000       0.53230000
C        2.05400000      -0.93140000      -0.47780000
H        0.00070000       1.69290000       1.35220000
H       -0.91080000       1.94300000      -0.12640000
H        2.60120000       2.73970000      -1.57690000
H        1.52420000      -0.94320000      -2.64300000
H       -0.94500000      -0.42750000       0.35610000
H        1.38750000      -0.90130000       1.58320000
H        3.04770000      -1.35580000      -0.45590000
