19
Properties=species:S:1:pos:R:3 gdb_72236=T pbc="F F F"
C        0.01900000       1.49450000      -0.09640000
C       -0.02290000       0.00690000       0.01720000
O        0.84820000      -0.73300000      -0.84970000
C       -0.04940000      -1.88140000      -0.75830000
C        0.51830000      -2.78300000       0.32620000
O        0.51270000      -1.95250000       1.49170000
C       -0.34570000      -0.85320000       1.24130000
C       -0.93450000      -0.27780000       2.49620000
C       -1.12210000      -1.04050000      -0.03710000
H        1.01700000       1.86400000       0.16430000
H       -0.20440000       1.81060000      -1.12050000
H       -0.70310000       1.96320000       0.57700000
H       -0.25400000      -2.33490000      -1.72890000
H       -0.09870000      -3.68210000       0.48170000
H        1.54820000      -3.08260000       0.10990000
H       -0.14410000       0.08170000       3.16260000
H       -1.60170000       0.55860000       2.27310000
H       -1.50830000      -1.04150000       3.03070000
H       -2.19310000      -1.00930000      -0.19120000
