19
Properties=species:S:1:pos:R:3 gdb_118376=T pbc="F F F"
C        0.02170000       1.51510000       0.04210000
C        0.19370000       0.00780000       0.10790000
O        0.53400000      -0.45390000      -1.19130000
C        0.69530000      -1.85290000      -1.29050000
C        0.74880000      -2.19490000      -2.79680000
C       -0.50730000      -1.91920000      -3.48030000
C       -1.55110000      -1.71180000      -4.03780000
C        1.90830000      -2.32560000      -0.60690000
C        2.90780000      -2.70980000      -0.06080000
H        0.95180000       1.99370000      -0.27680000
H       -0.76350000       1.78130000      -0.67090000
H       -0.25180000       1.90820000       1.02590000
H        0.98200000      -0.26510000       0.82500000
H       -0.73830000      -0.47700000       0.44210000
H       -0.17740000      -2.36230000      -0.84950000
H        1.56380000      -1.61270000      -3.24080000
H        1.01420000      -3.25230000      -2.90330000
H       -2.46840000      -1.52030000      -4.53680000
H        3.78710000      -3.05010000       0.42870000
