20
Properties=species:S:1:pos:R:3 gdb_95635=T pbc="F F F"
C        0.16200000       1.59770000      -0.02970000
C        0.04970000       0.06810000       0.00460000
C        0.64050000      -0.54820000      -1.26300000
C        0.89820000      -2.02210000      -1.02940000
O        1.84150000      -2.18130000       0.02980000
C        1.62210000      -1.52580000       1.20270000
O        2.23840000      -1.86220000       2.18610000
N        0.69660000      -0.50580000       1.19270000
C        0.31180000       0.04150000       2.48680000
H        1.21240000       1.90640000      -0.02500000
H       -0.30510000       1.97820000      -0.94360000
H       -0.33910000       2.06870000       0.81900000
H       -1.02100000      -0.19180000       0.05030000
H       -0.04470000      -0.39380000      -2.10190000
H        1.58980000      -0.06010000      -1.51270000
H       -0.03110000      -2.55370000      -0.78050000
H        1.34720000      -2.50920000      -1.89790000
H        0.62530000      -0.65530000       3.26170000
H        0.78210000       1.01150000       2.68490000
H       -0.77660000       0.17040000       2.52390000
