20
Properties=species:S:1:pos:R:3 gdb_36631=T pbc="F F F"
N       -0.12940000      -1.14360000      -0.10410000
C       -0.09030000       0.01040000      -0.15360000
C       -0.01560000       1.46820000      -0.20640000
C        1.38380000       2.00430000       0.19340000
C        1.45990000       3.50100000       0.12480000
C        1.61690000       4.33410000       1.15610000
C        1.71630000       5.77820000       0.73230000
C        1.26460000       5.73710000      -0.75080000
C        1.43360000       4.26150000      -1.18980000
H       -0.27420000       1.79180000      -1.22030000
H       -0.77660000       1.88470000       0.46250000
H        1.61590000       1.65960000       1.20540000
H        2.12730000       1.55370000      -0.47600000
H        1.71470000       4.01940000       2.19040000
H        1.09720000       6.44720000       1.34060000
H        2.74920000       6.14020000       0.83690000
H        0.20790000       6.01520000      -0.81510000
H        1.81950000       6.43320000      -1.38430000
H        2.37540000       4.09840000      -1.73420000
H        0.63530000       3.93650000      -1.86750000
