17
Properties=species:S:1:pos:R:3 gdb_25630=T pbc="F F F"
C       -0.07150000       1.47700000      -0.04890000
C       -0.01920000       0.02340000      -0.05670000
C        0.00910000      -1.18300000      -0.06440000
C        0.05350000      -2.59840000      -0.07240000
C        1.18480000      -3.38770000       0.02220000
C        2.62550000      -3.03780000       0.15430000
N        0.71310000      -4.67990000      -0.03100000
C       -0.64790000      -4.62240000      -0.15240000
N       -1.08300000      -3.39050000      -0.18090000
H        0.49790000       1.90570000      -0.88180000
H       -1.10460000       1.83050000      -0.13950000
H        0.33830000       1.89060000       0.87990000
H        3.06460000      -3.43350000       1.07830000
H        3.22240000      -3.41800000      -0.68390000
H        2.72680000      -1.95070000       0.17290000
H        1.27520000      -5.51370000       0.01230000
H       -1.25740000      -5.51180000      -0.21450000
