21
Properties=species:S:1:pos:R:3 gdb_41530=T pbc="F F F"
C        0.02540000       1.51330000      -0.23390000
C        1.52100000       1.53440000       0.21970000
C        1.32520000       0.11270000       0.70960000
C        1.85590000      -0.65000000       1.65480000
C        1.31730000      -2.01960000       1.99880000
O        0.51010000      -2.58410000       0.98210000
C       -0.85410000      -2.20170000       0.96230000
C       -1.10280000      -0.69330000       0.75270000
C        0.01640000      -0.03990000      -0.05290000
H       -0.62860000       2.01020000       0.48820000
H       -0.19530000       1.89750000      -1.23210000
H        2.20580000       1.59710000      -0.63380000
H        1.82150000       2.28800000       0.95320000
H        2.71980000      -0.31410000       2.22620000
H        2.15470000      -2.71550000       2.13800000
H        0.77230000      -1.99620000       2.96010000
H       -1.27750000      -2.76930000       0.12710000
H       -1.36110000      -2.53930000       1.88140000
H       -2.07720000      -0.56140000       0.26460000
H       -1.16630000      -0.18290000       1.72130000
H        0.15120000      -0.54850000      -1.01510000
