15
Properties=species:S:1:pos:R:3 gdb_50297=T pbc="F F F"
O       -0.22920000       0.01420000      -0.16860000
C       -0.04720000       1.17710000       0.07000000
C        1.27250000       1.90710000      -0.05200000
O        2.38250000       1.05130000      -0.24240000
C        3.02080000       1.56130000      -1.44810000
O        2.80870000       2.95230000      -1.35540000
C        1.37890000       2.85860000      -1.32500000
C        1.08170000       1.97910000      -2.52910000
C        2.12740000       1.15490000      -2.61240000
H       -0.87560000       1.84100000       0.41680000
H        1.41500000       2.52400000       0.84710000
H        4.07470000       1.29640000      -1.43650000
H        0.90930000       3.83520000      -1.23830000
H        0.15190000       1.96070000      -3.07930000
H        2.27530000       0.29470000      -3.24850000
