16
Properties=species:S:1:pos:R:3 gdb_73050=T pbc="F F F"
O       -0.12020000       1.45700000       0.08810000
C       -0.02120000       0.08510000       0.03370000
C       -0.92210000      -0.81340000      -0.81280000
O       -0.95740000      -1.81080000       0.24690000
C       -0.22730000      -0.94570000       1.11970000
C        1.15920000      -0.69870000       0.57790000
C        1.92970000      -1.75600000      -0.20190000
C        2.87670000      -2.47820000       0.64680000
N        3.62840000      -3.03080000       1.32850000
H        0.59370000       1.84300000      -0.43150000
H       -1.91410000      -0.37450000      -0.96150000
H       -0.54030000      -1.21470000      -1.75880000
H       -0.51820000      -0.89850000       2.16160000
H        1.75640000      -0.08460000       1.24770000
H        1.22120000      -2.47750000      -0.62270000
H        2.48470000      -1.31210000      -1.03670000
