14
Properties=species:S:1:pos:R:3 gdb_19542=T pbc="F F F"
N       -0.12050000      -1.14370000      -0.10880000
C       -0.07550000       0.01070000      -0.03280000
C        0.02820000       1.41880000       0.07840000
C       -0.70540000       2.45360000       0.86490000
C        0.59650000       3.13570000       1.28230000
C        1.22360000       2.46150000       0.03260000
C        0.43290000       3.10500000      -1.11650000
N       -0.82220000       2.43340000      -0.62830000
H       -1.62990000       2.33790000       1.41420000
H        0.62550000       4.22860000       1.33050000
H        0.97240000       2.70780000       2.21410000
H        2.28580000       2.23850000      -0.02330000
H        0.38280000       4.19820000      -1.15750000
H        0.67350000       2.69950000      -2.10100000
