20
Properties=species:S:1:pos:R:3 gdb_41261=T pbc="F F F"
C       -0.03740000       1.46250000       0.19970000
C        1.45440000       1.61340000      -0.24920000
C        1.38780000       0.17310000      -0.73840000
C        2.37610000      -0.94280000      -1.06240000
C        1.32390000      -1.43520000      -2.08120000
C        0.06140000      -2.11320000      -1.49830000
C       -0.50280000      -0.70000000      -1.22150000
C        0.07310000      -0.09240000       0.05280000
N        0.62690000      -0.06900000      -2.05820000
H       -0.26850000       1.81930000       1.20490000
H       -0.74620000       1.90900000      -0.50160000
H        1.69280000       2.37470000      -0.99620000
H        2.12520000       1.72670000       0.60920000
H        3.26700000      -0.56830000      -1.57760000
H        2.68530000      -1.60840000      -0.25130000
H        1.68850000      -1.80760000      -3.04050000
H       -0.50480000      -2.63180000      -2.27600000
H        0.18200000      -2.78900000      -0.64540000
H       -1.54160000      -0.49730000      -1.49840000
H        0.02450000      -0.65980000       0.98550000
