20
Properties=species:S:1:pos:R:3 gdb_63073=T pbc="F F F"
C       -0.25600000       1.60920000      -0.01790000
C        0.00350000       0.12380000       0.04860000
O       -1.10780000      -0.63230000      -0.39740000
C        1.32170000      -0.55820000      -0.25950000
C        2.68300000       0.14400000      -0.13210000
C        2.90890000       0.39090000       1.36090000
N        2.00770000       1.39750000       1.95490000
C        1.69620000      -0.04460000       2.10650000
C        0.70490000      -0.64910000       1.14060000
H        0.59220000       2.19280000       0.33120000
H       -0.48600000       1.88960000      -1.05530000
H       -1.12620000       1.86270000       0.59630000
H       -1.28350000      -0.37130000      -1.30880000
H        1.25280000      -1.40490000      -0.93460000
H        3.46500000      -0.52160000      -0.51220000
H        2.74600000       1.07550000      -0.70540000
H        3.91000000       0.29170000       1.76940000
H        2.41240000       1.74140000       2.82260000
H        1.75910000      -0.47640000       3.09970000
H        0.19960000      -1.55250000       1.46190000
