21
Properties=species:S:1:pos:R:3 gdb_75344=T pbc="F F F"
C        0.17320000       1.52030000       0.54860000
C       -0.06940000       0.11550000       0.04940000
C       -1.25980000      -0.48560000       0.20550000
C       -1.59150000      -1.85410000      -0.33440000
C       -0.74120000      -2.97340000       0.24910000
C       -0.09770000      -3.97290000      -0.68130000
C        0.74610000      -2.92600000       0.02510000
C        1.40290000      -1.80580000      -0.69560000
C        1.06540000      -0.50760000      -0.64990000
H        0.98950000       1.54930000       1.28090000
H        0.46860000       2.18460000      -0.27380000
H       -0.72050000       1.93910000       1.01830000
H       -2.05030000       0.05720000       0.71890000
H       -2.65210000      -2.07700000      -0.17860000
H       -1.43710000      -1.84290000      -1.42240000
H       -1.06900000      -3.34050000       1.21730000
H        0.00560000      -5.00350000      -0.36060000
H       -0.27540000      -3.84820000      -1.74470000
H        1.36220000      -3.33090000       0.82720000
H        2.30290000      -2.07230000      -1.24920000
H        1.72240000       0.19300000      -1.16590000
