22
Properties=species:S:1:pos:R:3 gdb_104222=T pbc="F F F"
C        0.01770000       1.37150000       0.27210000
O       -0.12150000      -0.01800000       0.47840000
C       -1.33860000      -0.59060000       0.04240000
C       -2.54400000      -0.05620000       0.81800000
C       -1.57770000      -0.66240000      -1.50400000
C       -1.89620000      -2.18110000      -1.36400000
C       -1.26910000      -2.12790000       0.02900000
C       -0.14960000      -2.92610000       0.56350000
N       -1.51440000      -3.05990000       1.12190000
H        1.05180000       1.62520000       0.51850000
H       -0.17130000       1.65170000      -0.77450000
H       -0.64730000       1.96470000       0.91510000
H       -2.72210000       1.00250000       0.60690000
H       -3.44980000      -0.60550000       0.54580000
H       -2.38680000      -0.16800000       1.89610000
H       -2.36150000      -0.02370000      -1.91720000
H       -0.64440000      -0.48960000      -2.04470000
H       -2.96910000      -2.39050000      -1.33080000
H       -1.43100000      -2.85210000      -2.08890000
H        0.20400000      -3.79670000       0.01650000
H        0.60520000      -2.40360000       1.14300000
H       -1.57410000      -2.55690000       2.00530000
