15
Properties=species:S:1:pos:R:3 gdb_6424=T pbc="F F F"
C       -0.21840000       1.61340000      -0.02790000
C       -0.00730000       0.09360000       0.00350000
C        1.18690000      -0.38300000      -0.90600000
C        2.01200000      -0.58680000       0.37410000
O        3.17110000      -0.77470000       0.58790000
C        0.78270000      -0.39410000       1.27560000
C       -1.25990000      -0.61430000      -0.23220000
N       -2.25170000      -1.17870000      -0.41870000
H        0.73320000       2.12380000       0.15100000
H       -0.60380000       1.93430000      -0.99940000
H       -0.92680000       1.92540000       0.74420000
H        0.99430000      -1.32950000      -1.41910000
H        1.56730000       0.34240000      -1.62900000
H        0.87760000       0.32340000       2.09400000
H        0.42080000      -1.34530000       1.67640000
