21
Properties=species:S:1:pos:R:3 gdb_85049=T pbc="F F F"
C       -0.15630000       1.54280000      -0.02980000
C        0.02300000       0.02800000       0.04350000
C        0.72210000      -0.59120000      -1.19310000
C        1.46710000      -1.79980000      -0.64440000
O        2.28110000      -2.49600000      -1.20190000
C        1.11920000      -1.95170000       0.83400000
O        2.10610000      -2.64490000       1.54150000
C        0.84500000      -0.49450000       1.26450000
C        2.14700000       0.26540000       1.53840000
H        0.80380000       2.05580000      -0.14400000
H       -0.78400000       1.82000000      -0.88310000
H       -0.63700000       1.92840000       0.87570000
H       -0.97410000      -0.42470000       0.12200000
H        0.03460000      -0.87710000      -1.99510000
H        1.45680000       0.08810000      -1.64140000
H        0.15690000      -2.49830000       0.87200000
H        2.66210000      -3.06460000       0.86660000
H        0.22660000      -0.47010000       2.16740000
H        2.77500000       0.34770000       0.64330000
H        1.94730000       1.27790000       1.89890000
H        2.73010000      -0.26410000       2.29480000
