19
Properties=species:S:1:pos:R:3 gdb_119348=T pbc="F F F"
O       -0.13770000       1.52010000       0.09930000
C        0.00170000       0.11020000       0.17910000
C       -1.36180000      -0.50490000      -0.12870000
C       -1.35270000      -1.99820000      -0.09840000
C       -2.45480000      -3.05430000       0.01230000
C       -1.95070000      -3.79160000      -1.22680000
C       -0.58550000      -3.13860000      -0.89600000
O       -0.18820000      -3.77460000       0.35090000
C       -1.24430000      -3.03920000       0.96620000
H        0.71590000       1.91870000       0.29140000
H        0.74710000      -0.26020000      -0.54280000
H        0.33170000      -0.20780000       1.18030000
H       -2.08870000      -0.13040000       0.60240000
H       -1.69570000      -0.14000000      -1.10840000
H       -3.47120000      -2.91820000       0.36060000
H       -1.97190000      -4.88580000      -1.24760000
H       -2.38580000      -3.37970000      -2.14110000
H        0.22690000      -3.04780000      -1.61480000
H       -1.30130000      -2.99780000       2.04630000
