16
Properties=species:S:1:pos:R:3 gdb_44454=T pbc="F F F"
N       -0.02740000       1.22450000      -0.21570000
C       -0.00800000      -0.01970000      -0.04150000
C       -1.25950000      -0.92730000      -0.06960000
C       -0.57370000      -2.24310000      -0.25760000
C       -0.46900000      -3.78120000      -0.14880000
C        0.88400000      -3.19860000      -0.70490000
O        0.10490000      -2.33610000      -1.59120000
C        0.79830000      -2.10840000       0.40330000
O        1.14600000      -0.75410000       0.21120000
H        0.91260000       1.61740000      -0.14890000
H       -1.79190000      -0.86540000       0.88490000
H       -1.92860000      -0.62720000      -0.87560000
H       -0.48740000      -4.22890000       0.84810000
H       -1.03540000      -4.34640000      -0.88740000
H        1.73560000      -3.73300000      -1.12460000
H        0.95110000      -2.41550000       1.44090000
