17
Properties=species:S:1:pos:R:3 gdb_67018=T pbc="F F F"
C       -0.14490000       1.56580000      -0.05050000
C        0.02950000       0.08420000      -0.01500000
C        0.12020000      -1.03450000      -0.97350000
O        1.24240000      -1.67470000      -0.36670000
C        0.92660000      -0.91450000       0.84150000
C        2.06940000      -0.64630000       1.76160000
C       -0.43170000      -1.51930000       1.28800000
O       -0.84510000      -1.91880000       2.34080000
C       -1.05430000      -1.06580000       0.01020000
H        0.80010000       2.06730000      -0.28520000
H       -0.87560000       1.85100000      -0.81370000
H       -0.50190000       1.94750000       0.91170000
H       -0.00950000      -1.09240000      -2.04700000
H        2.84230000      -0.04610000       1.27380000
H        1.71930000      -0.12550000       2.65740000
H        2.51490000      -1.59560000       2.07490000
H       -2.09390000      -1.00550000      -0.28020000
