14
Properties=species:S:1:pos:R:3 gdb_20469=T pbc="F F F"
C        0.21410000       1.53500000       0.02620000
O        1.17280000       0.50630000      -0.20900000
C       -0.18920000       0.11650000       0.01350000
C       -0.46710000      -0.64120000       1.24750000
C       -1.51960000      -1.50120000       1.49550000
N       -1.35750000      -1.94770000       2.76440000
N       -0.26200000      -1.44910000       3.36720000
C        0.28090000      -0.65540000       2.45090000
H        0.30210000       2.04940000       0.98200000
H       -0.01350000       2.17040000      -0.82940000
H       -0.69840000      -0.24440000      -0.88080000
H       -2.34790000      -1.81650000       0.88060000
H       -1.94030000      -2.59360000       3.26900000
H        1.20010000      -0.13080000       2.66290000
