20
Properties=species:S:1:pos:R:3 gdb_108952=T pbc="F F F"
C       -0.19340000       1.49920000       0.10990000
N        0.03660000       0.07430000      -0.05500000
C        0.67540000      -0.45900000      -1.24780000
C        1.51380000       0.44930000      -2.15220000
C        2.64880000       0.91270000      -1.25630000
C        3.66120000       1.90290000      -1.73300000
O        4.58050000       2.18720000      -0.69480000
C        2.57860000       0.34620000      -0.04660000
C        1.37580000      -0.52790000       0.08250000
H        0.64360000       2.14680000      -0.18600000
H       -1.07400000       1.77880000      -0.47820000
H       -0.41610000       1.69720000       1.16340000
H        0.17460000      -1.31200000      -1.69750000
H        1.88510000      -0.11080000      -3.02040000
H        0.93580000       1.29230000      -2.55600000
H        4.17370000       1.49450000      -2.62300000
H        3.14390000       2.81750000      -2.07490000
H        5.24440000       2.79060000      -1.03970000
H        3.28080000       0.52580000       0.75680000
H        1.41190000      -1.41800000       0.70440000
