14
Properties=species:S:1:pos:R:3 gdb_18821=T pbc="F F F"
O        0.02700000      -0.04030000       0.08550000
C        0.00360000       1.15340000      -0.04340000
N       -1.10860000       1.97710000      -0.01930000
C       -0.70000000       3.35110000      -0.06520000
C        0.47540000       3.83080000       0.81150000
C        1.28430000       2.62730000       1.26650000
N        1.18150000       2.02290000      -0.14140000
C        0.67580000       3.35430000      -0.61540000
H       -1.96700000       1.64860000       0.39180000
H       -1.42910000       4.08440000      -0.38440000
H        0.50830000       4.83760000       1.20970000
H        2.32950000       2.86910000       1.46850000
H        0.89370000       1.99140000       2.06810000
H        1.04710000       3.81720000      -1.52040000
