22
Properties=species:S:1:pos:R:3 gdb_107665=T pbc="F F F"
C        0.26930000       1.44530000       0.34260000
C       -0.21820000       0.07990000      -0.15640000
C        0.57190000      -0.44640000      -1.34240000
C        0.45570000       0.35450000      -2.63280000
C        1.00010000      -0.40330000      -3.84730000
O        0.45000000      -1.70180000      -3.92520000
C        0.89340000      -2.53870000      -2.87110000
C        0.80300000      -1.91280000      -1.48460000
N        1.87700000      -1.02980000      -0.97990000
H        1.33260000       1.39880000       0.59740000
H        0.13400000       2.22850000      -0.41040000
H       -0.28060000       1.75230000       1.23720000
H       -0.13570000      -0.64880000       0.65710000
H       -1.28030000       0.13400000      -0.42920000
H       -0.60430000       0.57410000      -2.80920000
H        0.97140000       1.31820000      -2.53730000
H        0.72110000       0.11050000      -4.77160000
H        2.10380000      -0.45290000      -3.82340000
H        0.25920000      -3.42900000      -2.91410000
H        1.93170000      -2.86420000      -3.06310000
H        0.40760000      -2.57630000      -0.71800000
H        2.56520000      -0.86850000      -1.71350000
