16
Properties=species:S:1:pos:R:3 gdb_51162=T pbc="F F F"
O        0.20230000      -0.16330000      -0.05600000
C        0.07490000       1.02640000      -0.18990000
C        1.19110000       2.03310000       0.03350000
C        1.28280000       3.02620000      -1.10210000
C        1.95890000       2.68720000      -2.41940000
C        2.51800000       3.78720000      -1.56470000
O        2.06170000       5.10180000      -1.85400000
C        0.72200000       5.06330000      -1.63790000
N        0.19840000       3.98660000      -1.20880000
H       -0.89420000       1.47770000      -0.49230000
H        0.97250000       2.57560000       0.96370000
H        2.12870000       1.48700000       0.16670000
H        2.54090000       1.77200000      -2.44400000
H        1.45290000       2.94140000      -3.34470000
H        3.51170000       3.76760000      -1.13670000
H        0.19940000       5.98740000      -1.85130000
