18
Properties=species:S:1:pos:R:3 gdb_57980=T pbc="F F F"
C       -0.10950000       1.50660000       0.22540000
C       -0.11660000      -0.00120000      -0.03690000
C        0.70270000      -0.77880000       1.01520000
C       -1.53500000      -0.53630000      -0.04640000
O       -2.50050000      -0.02430000       0.45310000
O       -1.58560000      -1.73760000      -0.70300000
C       -2.85860000      -2.38430000      -0.71240000
C       -2.99850000      -3.30170000       0.42410000
N       -3.11120000      -4.03500000       1.30900000
H        0.91810000       1.88100000       0.23300000
H       -0.66710000       2.04960000      -0.54270000
H       -0.56950000       1.73190000       1.19100000
H        0.31130000      -0.21560000      -1.02270000
H        0.69350000      -1.85240000       0.81260000
H        1.74050000      -0.43410000       1.00510000
H        0.29960000      -0.61330000       2.01940000
H       -3.66000000      -1.64180000      -0.67730000
H       -2.91350000      -2.94950000      -1.64550000
