27
Properties=species:S:1:pos:R:3 gdb_101612=T pbc="F F F"
C       -0.30560000       1.81590000       0.39860000
C       -0.17270000       0.29700000       0.24850000
C       -1.45810000      -0.42900000      -0.20220000
C       -1.92180000       0.04230000      -1.58950000
C       -1.22730000      -1.95360000      -0.13980000
C       -2.44670000      -2.90380000      -0.23190000
C       -1.97060000      -4.35110000      -0.02120000
C       -3.53730000      -2.55820000       0.78530000
O       -3.09570000      -2.81410000      -1.51040000
H        0.61670000       2.24910000       0.79860000
H       -0.51010000       2.30870000      -0.55640000
H       -1.11860000       2.07510000       1.08670000
H        0.63440000       0.06910000      -0.46240000
H        0.14650000      -0.12380000       1.21080000
H       -2.24100000      -0.17150000       0.52460000
H       -1.14070000      -0.14400000      -2.33860000
H       -2.82010000      -0.49000000      -1.90420000
H       -2.13470000       1.11520000      -1.59780000
H       -0.51980000      -2.23660000      -0.93510000
H       -0.71350000      -2.18490000       0.80270000
H       -1.55970000      -4.49930000       0.98250000
H       -2.80670000      -5.04220000      -0.16100000
H       -1.18680000      -4.61230000      -0.74250000
H       -3.97220000      -1.57840000       0.57550000
H       -4.34090000      -3.29830000       0.73580000
H       -3.13490000      -2.55130000       1.80270000
H       -2.44560000      -3.03930000      -2.18470000
