14
Properties=species:S:1:pos:R:3 gdb_43318=T pbc="F F F"
O       -0.01070000      -0.01080000      -0.05060000
C       -0.04290000       1.19120000      -0.01120000
C       -1.23760000       2.07330000       0.10770000
C       -0.88380000       3.36260000       0.03800000
C        0.60160000       3.51660000      -0.06400000
N        1.28750000       2.97300000       1.13310000
C        1.16810000       2.13950000      -0.11430000
C        2.33090000       1.77040000      -0.85090000
C        3.31140000       1.44050000      -1.46360000
H       -2.23290000       1.67190000       0.24410000
H       -1.55460000       4.21130000       0.09950000
H        1.05150000       4.33700000      -0.61010000
H        2.24550000       3.32680000       1.15670000
H        4.17370000       1.14250000      -2.00730000
