16
Properties=species:S:1:pos:R:3 gdb_7114=T pbc="F F F"
C       -0.37180000       1.26800000      -0.42890000
C        0.42190000       0.10450000       0.16860000
N        1.18090000      -0.63730000      -0.82590000
C        0.79450000      -1.84890000      -1.28060000
O       -0.15120000      -2.50000000      -0.90490000
O        1.68130000      -2.24850000      -2.26790000
C        1.46260000      -3.46840000      -2.84520000
N        2.25520000      -3.84830000      -3.74630000
H        0.28850000       1.98630000      -0.92640000
H       -1.09670000       0.90500000      -1.16290000
H       -0.91460000       1.80040000       0.35830000
H        1.11350000       0.46900000       0.93690000
H       -0.24870000      -0.61520000       0.64250000
H        1.97080000      -0.20850000      -1.28110000
H        0.59120000      -3.97750000      -2.43220000
H        1.97310000      -4.76760000      -4.08260000
