12
Properties=species:S:1:pos:R:3 gdb_132238=T pbc="F F F"
F        0.04210000       0.08150000       0.00330000
C       -0.07480000       1.39300000       0.01180000
N       -1.22040000       1.93370000       0.03040000
C       -1.26950000       3.33290000       0.03840000
N       -2.32610000       4.03520000       0.05690000
N       -0.03030000       4.00350000       0.02480000
C        1.21110000       3.42840000       0.00490000
O        2.26510000       4.01350000      -0.00660000
N        1.13100000       2.02330000      -0.00140000
H       -3.13760000       3.41990000       0.06500000
H       -0.06370000       5.01290000       0.03060000
H        1.99750000       1.50710000      -0.01610000
