25
Properties=species:S:1:pos:R:3 gdb_58558=T pbc="F F F"
C       -2.10120000      -1.22710000       0.29840000
C       -0.86780000      -0.30210000       0.23550000
C       -1.36160000       1.15200000       0.12980000
C        0.15610000      -0.51920000       1.38580000
C        1.16820000       0.62160000       1.48950000
C       -0.46310000      -0.99220000       2.72890000
O       -0.08820000      -2.36140000       2.47290000
C        0.81360000      -1.94060000       1.42120000
C        0.86750000      -2.88340000       0.23560000
H       -2.84360000      -0.83520000       1.00250000
H       -2.58640000      -1.27310000      -0.68180000
H       -1.86190000      -2.24260000       0.61590000
H       -0.32550000      -0.52630000      -0.69410000
H       -1.82410000       1.48230000       1.06790000
H       -0.56210000       1.85420000      -0.11770000
H       -2.12370000       1.23070000      -0.65260000
H        0.69840000       1.56310000       1.78790000
H        1.93650000       0.38840000       2.23350000
H        1.67420000       0.79330000       0.53180000
H        0.05430000      -0.58980000       3.61190000
H       -1.54240000      -0.88420000       2.87160000
H        1.83340000      -1.85720000       1.83270000
H       -0.09090000      -2.99280000      -0.27370000
H        1.60890000      -2.53070000      -0.48980000
H        1.18440000      -3.87380000       0.57890000
