11
Properties=species:S:1:pos:R:3 gdb_130828=T pbc="F F F"
O       -0.06290000       0.01860000       0.00200000
C       -0.02750000       1.21680000       0.00860000
C        1.33070000       1.96430000      -0.00070000
O        2.37540000       1.37000000      -0.01450000
C        1.26960000       3.45720000       0.00850000
N        0.12400000       4.09860000       0.02380000
O        0.49580000       5.43240000       0.02750000
C        1.83800000       5.44490000       0.01420000
N        2.38050000       4.27330000       0.00210000
H       -0.93490000       1.85020000       0.02130000
H        2.31760000       6.41240000       0.01490000
