22
Properties=species:S:1:pos:R:3 gdb_115746=T pbc="F F F"
C       -0.15850000       1.72070000      -0.03900000
C       -0.12160000       0.26310000       0.43470000
C       -1.34050000      -0.53070000      -0.02190000
C       -1.52840000      -0.85740000      -1.53130000
C       -2.09610000      -2.24430000      -1.12580000
C       -1.47790000      -2.05950000       0.29000000
C       -0.14200000      -2.80050000       0.48140000
C       -0.33190000      -4.24660000       0.58550000
N       -0.50150000      -5.38700000       0.66550000
H        0.72900000       2.26830000       0.29180000
H       -0.19890000       1.78090000      -1.13180000
H       -1.03870000       2.24130000       0.35390000
H        0.79620000      -0.21060000       0.06280000
H       -0.05850000       0.23780000       1.53100000
H       -2.24380000      -0.03250000       0.35070000
H       -2.17540000      -0.19890000      -2.11470000
H       -0.56850000      -0.93950000      -2.05220000
H       -3.18810000      -2.24960000      -1.09140000
H       -1.76750000      -3.11580000      -1.69770000
H       -2.13190000      -2.30660000       1.13020000
H        0.53770000      -2.60580000      -0.35620000
H        0.36740000      -2.45270000       1.38720000
