12
Properties=species:S:1:pos:R:3 gdb_27029=T pbc="F F F"
N        0.18450000       1.38170000       0.17740000
C       -0.00360000       0.03580000       0.05250000
C       -1.10040000      -0.75030000       0.01290000
O       -0.64300000      -2.08850000      -0.01440000
C        0.70370000      -2.06840000      -0.01350000
O        1.44100000      -2.99730000      -0.04780000
O        1.11720000      -0.74140000       0.03340000
C       -2.46240000      -0.45770000       0.00490000
C       -3.63670000      -0.18050000      -0.00740000
H        1.01500000       1.73570000      -0.27740000
H       -0.64060000       1.93410000      -0.00760000
H       -4.67190000       0.05590000      -0.01020000
