18
Properties=species:S:1:pos:R:3 gdb_49091=T pbc="F F F"
O       -0.18760000       0.40030000      -0.75760000
C        0.17910000       1.09190000       0.16640000
C        1.41660000       1.89610000       0.17660000
C        1.88690000       2.64220000       1.41990000
C        2.49200000       3.94760000       0.81450000
N        2.77790000       3.64930000      -0.60290000
C        3.67890000       2.43510000      -0.68530000
C        2.45750000       1.55290000      -0.90540000
C        1.65110000       2.79690000      -1.04870000
H       -0.43690000       1.18380000       1.08960000
H        1.05150000       2.84800000       2.09720000
H        2.62890000       2.07370000       1.98940000
H        1.76230000       4.76300000       0.85130000
H        3.40160000       4.28280000       1.32010000
H        4.31360000       2.49970000      -1.57260000
H        4.30520000       2.26010000       0.19620000
H        2.37630000       0.62570000      -1.45790000
H        0.87810000       3.10930000      -1.73810000
