23
Properties=species:S:1:pos:R:3 gdb_119729=T pbc="F F F"
C        0.08650000       1.59230000       0.07910000
C        0.00800000       0.06590000      -0.00780000
C        0.75190000      -0.50690000      -1.22320000
C        0.68670000      -2.01710000      -1.30510000
C        1.50830000      -2.86390000      -0.28190000
C        2.14030000      -3.68050000      -1.45280000
C        1.27320000      -2.89230000      -2.45730000
O       -0.00820000      -3.51000000      -2.69500000
C       -0.64900000      -2.68370000      -1.69680000
H        1.12580000       1.93080000       0.15630000
H       -0.34770000       2.06240000      -0.81020000
H       -0.45270000       1.97100000       0.95290000
H        0.41880000      -0.37540000       0.90940000
H       -1.04450000      -0.24430000      -0.04830000
H        0.33310000      -0.07440000      -2.14270000
H        1.80320000      -0.18860000      -1.18650000
H        2.23680000      -2.27220000       0.27900000
H        0.91200000      -3.43620000       0.43390000
H        3.21320000      -3.50510000      -1.57190000
H        1.95390000      -4.75650000      -1.45940000
H        1.72870000      -2.51360000      -3.37760000
H       -1.15410000      -3.27760000      -0.92400000
H       -1.37930000      -2.00130000      -2.15450000
