19
Properties=species:S:1:pos:R:3 gdb_117266=T pbc="F F F"
C        1.28790000       1.02420000      -0.26280000
O        1.17970000      -0.28970000      -0.76520000
C       -0.15070000      -0.69550000      -0.96790000
C       -0.20370000      -2.12790000      -1.49970000
O       -1.27310000      -2.67260000      -1.64370000
C        1.11960000      -2.78760000      -1.81000000
C        1.95960000      -3.22100000      -0.57650000
O        1.86870000      -4.60450000      -0.95600000
C        1.08470000      -4.29080000      -2.12980000
H        0.85200000       1.75940000      -0.95640000
H        0.78530000       1.12770000       0.71080000
H        2.35150000       1.23860000      -0.13910000
H       -0.73800000      -0.65590000      -0.03620000
H       -0.66660000      -0.04580000      -1.69560000
H        1.68040000      -2.15950000      -2.50490000
H        2.99110000      -2.85210000      -0.56680000
H        1.50330000      -3.02750000       0.40200000
H        0.08470000      -4.73460000      -2.09450000
H        1.59280000      -4.59160000      -3.05320000
