19
Properties=species:S:1:pos:R:3 gdb_115924=T pbc="F F F"
C       -0.12710000       1.36240000      -0.00870000
O       -0.06510000      -0.05340000      -0.06900000
C        0.63230000      -0.54670000      -1.15650000
C        0.76390000      -2.06030000      -1.00060000
C        1.18700000      -2.71310000      -2.30530000
O        0.15140000      -2.92900000      -3.27290000
C        1.13580000      -1.94170000      -3.55850000
C        0.66520000      -0.50270000      -3.51180000
O       -0.07570000      -0.21860000      -2.34430000
H        0.88120000       1.80270000       0.01620000
H       -0.67370000       1.77650000      -0.86210000
H       -0.64810000       1.61510000       0.91680000
H        1.63780000      -0.07820000      -1.22000000
H        1.49090000      -2.28080000      -0.21300000
H       -0.20460000      -2.46060000      -0.68570000
H        1.89140000      -3.54050000      -2.22860000
H        1.81880000      -2.18380000      -4.37440000
H        1.54840000       0.15610000      -3.59330000
H        0.00430000      -0.28740000      -4.35740000
