23
Properties=species:S:1:pos:R:3 gdb_119422=T pbc="F F F"
C       -0.15060000       1.51510000       0.12030000
C       -0.08910000       0.00100000       0.21940000
O       -1.32480000      -0.52700000      -0.25220000
C       -1.40530000      -1.90180000      -0.20240000
C       -1.64830000      -2.64390000       1.08800000
C       -2.66310000      -2.74260000      -0.03650000
C       -4.09990000      -2.33930000       0.12220000
C       -2.12840000      -3.73950000      -1.07880000
C       -0.85450000      -2.84940000      -1.27440000
H        0.78390000       1.95890000       0.47670000
H       -0.31000000       1.82640000      -0.91600000
H       -0.97410000       1.90610000       0.72480000
H        0.74430000      -0.39250000      -0.38260000
H        0.07900000      -0.31930000       1.25880000
H       -1.04450000      -3.50200000       1.37950000
H       -1.95710000      -2.00670000       1.91140000
H       -4.18790000      -1.44070000       0.74080000
H       -4.56060000      -2.12220000      -0.84840000
H       -4.68780000      -3.13280000       0.59930000
H       -1.95740000      -4.75900000      -0.71730000
H       -2.74480000      -3.78680000      -1.98030000
H       -0.83190000      -2.38130000      -2.26140000
H        0.11730000      -3.31390000      -1.07670000
