20
Properties=species:S:1:pos:R:3 gdb_22885=T pbc="F F F"
C       -0.03510000       1.63580000      -0.02760000
C       -0.03590000       0.09320000       0.01820000
C        0.68630000      -0.53680000      -1.15140000
C        1.74410000      -1.25770000      -0.78280000
C        1.94910000      -1.28170000       0.71540000
C        3.29410000      -0.68600000       1.17080000
C        0.73530000      -0.49090000       1.19480000
N        0.45950000      -0.42930000       2.43460000
O       -0.71850000       0.30750000       2.67350000
H        0.98770000       2.02260000      -0.07000000
H       -0.56450000       1.98770000      -0.91920000
H       -0.52760000       2.04450000       0.85610000
H       -1.08230000      -0.23690000       0.07880000
H        0.36360000      -0.37520000      -2.17450000
H        2.41620000      -1.77600000      -1.45820000
H        1.89060000      -2.30830000       1.10170000
H        3.40780000       0.34230000       0.81360000
H        3.35420000      -0.67980000       2.26230000
H        4.13060000      -1.27500000       0.78020000
H       -0.79800000       0.25400000       3.63150000
