15
Properties=species:S:1:pos:R:3 gdb_46291=T pbc="F F F"
O       -0.27080000       0.00460000       0.12270000
C       -0.14530000       1.19390000       0.03440000
N       -1.02610000       2.24240000      -0.05020000
C       -0.01940000       3.30760000      -0.11170000
C        1.05800000       2.18860000       0.01720000
C        2.04810000       2.16340000       1.20570000
N        3.38310000       2.14220000       0.58740000
C        3.17950000       2.07250000      -0.65800000
O        1.90330000       2.06350000      -1.13330000
H       -2.03400000       2.27020000      -0.02360000
H        0.01730000       3.84220000      -1.06490000
H       -0.05670000       4.01630000       0.72210000
H        1.94220000       3.03360000       1.86070000
H        1.91370000       1.26400000       1.81610000
H        3.94020000       2.01750000      -1.42780000
