20
Properties=species:S:1:pos:R:3 gdb_51429=T pbc="F F F"
O       -0.11810000      -0.05710000       0.42490000
C       -0.04940000       1.11590000       0.12460000
N        1.09190000       1.79380000      -0.17710000
C        2.39890000       1.17830000      -0.17560000
C        3.30500000       1.46110000      -1.41930000
C        3.67880000       2.80800000      -0.73030000
C        3.53580000       1.95560000       0.56650000
C        4.70790000       0.96690000       0.42290000
C        4.53200000       0.58980000      -1.09110000
H       -0.93870000       1.77520000       0.06360000
H        1.00200000       2.76960000      -0.40980000
H        2.24390000       0.13510000       0.10220000
H        2.90450000       1.41650000      -2.43240000
H        4.65860000       3.24130000      -0.95200000
H        2.91720000       3.58460000      -0.83520000
H        3.36660000       2.40690000       1.54450000
H        5.67230000       1.43890000       0.62960000
H        4.60640000       0.10340000       1.08580000
H        4.33630000      -0.47560000      -1.23910000
H        5.40210000       0.85970000      -1.69590000
