16
Properties=species:S:1:pos:R:3 gdb_52064=T pbc="F F F"
O       -0.03740000       0.78830000       1.00920000
C        0.13970000       1.33570000      -0.05730000
N        1.33950000       1.45040000      -0.69140000
C        2.58210000       0.98050000      -0.11460000
C        3.59080000       2.10860000       0.03280000
C        5.01170000       1.85550000      -0.27900000
O        4.17980000       2.52410000      -1.22130000
C        3.23380000       3.17440000       0.93700000
C        2.90860000       4.03870000       1.70560000
H       -0.67720000       1.79930000      -0.64400000
H        1.38200000       1.95170000      -1.56500000
H        2.33450000       0.55000000       0.85840000
H        3.02790000       0.20020000      -0.74230000
H        5.77220000       2.47080000       0.19670000
H        5.32150000       0.84750000      -0.55260000
H        2.62340000       4.80480000       2.38400000
