17
Properties=species:S:1:pos:R:3 gdb_44645=T pbc="F F F"
O       -0.47880000       0.31350000       0.42260000
C       -0.15780000       1.38900000       0.03280000
O       -0.95370000       2.31220000      -0.62270000
C        0.16390000       3.24890000      -0.76570000
C        0.27990000       4.31220000       0.36340000
C       -0.79080000       4.26580000       1.48680000
C        0.10210000       3.27020000       2.29740000
C        1.18090000       3.32410000       1.17900000
C        1.08240000       2.27850000       0.00790000
H        0.28960000       3.54530000      -1.80600000
H        0.63170000       5.28840000       0.02860000
H       -0.92760000       5.22910000       1.98200000
H       -1.76640000       3.88690000       1.17850000
H        0.45390000       3.67620000       3.24840000
H       -0.32980000       2.28530000       2.48880000
H        2.20190000       3.56510000       1.47270000
H        2.00440000       1.84300000      -0.37180000
