17
Properties=species:S:1:pos:R:3 gdb_20035=T pbc="F F F"
O       -0.01060000       1.09510000      -0.89300000
C        0.07630000       0.00940000       0.02100000
C       -1.29830000      -0.55480000       0.29650000
N       -1.85950000      -1.40260000      -0.77670000
C       -1.60700000      -1.99320000       0.54220000
C       -0.60590000      -3.10670000       0.64380000
C       -0.43870000      -4.09210000      -0.43490000
O        0.54310000      -3.08110000      -0.19540000
H       -0.34780000       0.72380000      -1.71610000
H        0.73700000      -0.78050000      -0.34850000
H        0.50460000       0.41990000       0.94180000
H       -1.98040000       0.16140000       0.75370000
H       -2.85160000      -1.22270000      -0.89990000
H       -2.47120000      -2.17740000       1.18180000
H       -0.40170000      -3.42630000       1.66750000
H       -0.12750000      -5.10880000      -0.20080000
H       -1.01380000      -3.96040000      -1.34860000
