21
Properties=species:S:1:pos:R:3 gdb_106274=T pbc="F F F"
C       -0.22600000       1.66170000      -0.09270000
C        0.00800000       0.16510000       0.03670000
C        1.22560000      -0.57080000      -0.61280000
C        1.49090000      -0.89110000      -2.05020000
C        2.17170000       0.02080000       0.46380000
C        0.87940000      -0.47520000       1.15620000
C        0.61230000      -0.72430000       2.61130000
O        1.60150000      -1.56970000       3.16850000
O        0.95840000      -1.70710000       0.31680000
H        0.67910000       2.25560000       0.05710000
H       -0.61900000       1.90080000      -1.08700000
H       -0.96910000       1.99950000       0.63780000
H       -0.91450000      -0.40370000      -0.11440000
H        1.65890000       0.02940000      -2.61850000
H        2.37960000      -1.52230000      -2.14710000
H        0.63960000      -1.41930000      -2.49040000
H        3.05850000      -0.57840000       0.67220000
H        2.38560000       1.09100000       0.45120000
H        0.64010000       0.21850000       3.16850000
H       -0.39800000      -1.15110000       2.72090000
H        1.70370000      -2.30460000       2.55150000
