17
Properties=species:S:1:pos:R:3 gdb_52180=T pbc="F F F"
O        0.04230000       0.04940000       0.71420000
C        0.11330000       1.11910000       0.17200000
C        1.42610000       1.76780000      -0.23460000
O        1.13220000       2.98080000      -0.88440000
C        2.26640000       3.71240000      -1.27080000
C        3.04900000       3.20960000      -2.53020000
C        2.89860000       4.63020000      -3.10200000
O        3.41950000       5.21910000      -4.00220000
C        1.90070000       5.02740000      -2.00320000
H       -0.78180000       1.73030000      -0.07680000
H        2.03700000       1.92540000       0.67030000
H        1.98160000       1.07030000      -0.88190000
H        2.93200000       3.87410000      -0.41160000
H        4.06740000       2.83370000      -2.41020000
H        2.46030000       2.48660000      -3.10610000
H        0.86790000       4.99460000      -2.36650000
H        2.07200000       5.97690000      -1.49240000
