19
Properties=species:S:1:pos:R:3 gdb_117502=T pbc="F F F"
C       -0.03710000       1.51520000       0.05980000
C       -0.19180000       0.00820000      -0.11510000
N        0.84720000      -0.50910000      -1.00900000
C        0.79080000      -1.95030000      -1.24040000
C       -0.50730000      -2.40290000      -1.82310000
N       -1.53810000      -2.69150000      -2.25960000
C        1.89650000      -2.39630000      -2.08930000
C        2.80010000      -2.75710000      -2.79570000
C        3.89560000      -3.19450000      -3.64720000
H        0.95810000       1.76220000       0.43970000
H       -0.17690000       2.03820000      -0.89310000
H       -0.78530000       1.89830000       0.75930000
H       -0.07040000      -0.49370000       0.85380000
H       -1.21000000      -0.22650000      -0.46730000
H        0.81740000      -0.02880000      -1.90360000
H        0.87160000      -2.43730000      -0.25770000
H        4.40280000      -4.06630000      -3.22050000
H        3.53490000      -3.47080000      -4.64350000
H        4.64040000      -2.40070000      -3.76800000
