21
Properties=species:S:1:pos:R:3 gdb_87800=T pbc="F F F"
C       -0.10650000       1.52860000       0.06710000
C       -0.00090000       0.02030000       0.08200000
C        1.33080000      -0.66630000      -0.14710000
C        0.68980000      -0.69410000       1.20960000
C        1.28740000      -0.10940000       2.50610000
C        0.81430000      -1.36700000       3.25450000
C       -0.65650000      -1.55520000       3.10090000
O       -1.50030000      -0.43800000       3.09010000
C        0.22080000      -1.93720000       1.93990000
H        0.79680000       1.99140000       0.47770000
H       -0.23940000       1.90990000      -0.95160000
H       -0.95400000       1.87220000       0.67060000
H       -0.86360000      -0.49540000      -0.33680000
H        1.35000000      -1.58310000      -0.72880000
H        2.20780000      -0.03860000      -0.28010000
H        2.37670000      -0.03050000       2.46770000
H        0.86460000       0.83310000       2.86320000
H        1.37730000      -1.87630000       4.02720000
H       -1.05190000      -2.40920000       3.65330000
H       -2.17320000      -0.58160000       2.41700000
H        0.25260000      -2.94770000       1.54610000
