16
Properties=species:S:1:pos:R:3 gdb_133108=T pbc="F F F"
C        0.02360000       1.54030000      -0.09910000
C       -0.00670000       0.01070000       0.07660000
C       -1.40800000      -0.53570000       0.05080000
N       -2.02020000      -0.81810000       1.20660000
C       -3.26830000      -1.28410000       1.14560000
N       -3.99160000      -1.51050000       0.04940000
C       -3.39020000      -1.23100000      -1.10970000
C       -2.09890000      -0.73760000      -1.14370000
F       -1.51290000      -0.45590000      -2.31210000
H        1.05280000       1.90790000      -0.05840000
H       -0.40300000       1.83250000      -1.06320000
H       -0.54730000       2.03360000       0.69290000
H        0.57990000      -0.45720000      -0.72110000
H        0.43790000      -0.26700000       1.03540000
H       -3.74660000      -1.50620000       2.09590000
H       -3.94040000      -1.40110000      -2.03180000
