18
Properties=species:S:1:pos:R:3 gdb_94181=T pbc="F F F"
C        0.15410000       1.57690000       0.02900000
C        0.04740000       0.07100000       0.10050000
O        0.86630000      -0.60550000      -0.88780000
C        1.37960000      -1.51750000       0.09940000
C        0.76800000      -0.69340000       1.25870000
O        1.68640000       0.05280000       2.03000000
C       -0.16200000      -1.46940000       2.18980000
N        0.10040000      -1.33620000       3.51140000
O       -1.06190000      -2.15180000       1.73360000
H        1.18350000       1.92300000       0.16210000
H       -0.19230000       1.92070000      -0.95040000
H       -0.47050000       2.04230000       0.79800000
H       -0.99490000      -0.25760000       0.01860000
H        0.95540000      -2.52220000       0.00100000
H        2.47600000      -1.56870000       0.09770000
H        2.34070000       0.44610000       1.44420000
H        0.86280000      -0.76030000       3.82370000
H       -0.47820000      -1.82830000       4.17110000
