23
Properties=species:S:1:pos:R:3 gdb_91945=T pbc="F F F"
C       -0.43000000       1.46130000       0.07090000
C        0.00330000      -0.01030000      -0.01330000
C        0.83570000      -0.33160000      -1.29390000
C        2.28390000      -0.49730000      -0.85150000
C        2.91840000       0.60050000      -0.03320000
C        2.31050000      -0.59950000       0.65600000
C        0.89180000      -0.49650000       1.15450000
C        0.59130000      -0.15810000       2.59310000
C        0.39360000      -1.56940000       2.09570000
H        0.41940000       2.15010000       0.08640000
H       -1.05030000       1.72240000      -0.79340000
H       -1.02290000       1.65170000       0.97090000
H       -0.91620000      -0.60590000      -0.02960000
H        0.49300000      -1.27350000      -1.73650000
H        0.70990000       0.44210000      -2.06020000
H        2.93470000      -1.11160000      -1.46450000
H        4.00200000       0.65740000      -0.04820000
H        2.43230000       1.56610000       0.04480000
H        2.97660000      -1.28720000       1.16730000
H        1.42950000       0.04110000       3.25280000
H       -0.29260000       0.43010000       2.81680000
H       -0.62440000      -1.92510000       1.97010000
H        1.09210000      -2.33370000       2.42210000
