15
Properties=species:S:1:pos:R:3 gdb_21053=T pbc="F F F"
C       -0.10950000       1.41880000      -0.04080000
N       -0.04080000      -0.02280000       0.01530000
N       -0.13500000      -0.74630000      -1.14470000
C       -0.03300000      -1.97890000      -0.68780000
O       -0.07670000      -3.03590000      -1.51150000
N        0.11770000      -2.10960000       0.65510000
C        0.10840000      -0.84760000       1.07190000
C        0.24230000      -0.40780000       2.49170000
H       -0.01740000       1.82200000       0.96830000
H        0.70100000       1.81100000      -0.66140000
H       -1.06410000       1.73470000      -0.47040000
H        0.01680000      -3.81740000      -0.95390000
H        1.12100000       0.22870000       2.64080000
H       -0.63650000       0.15130000       2.83030000
H        0.34880000      -1.29370000       3.11820000
