21
Properties=species:S:1:pos:R:3 gdb_79089=T pbc="F F F"
C       -0.18570000       1.57770000      -0.01560000
C        0.00000000       0.06670000       0.00310000
C        1.23060000      -0.59460000      -0.66740000
C        2.15370000      -0.18000000       0.53670000
C        3.12960000      -1.32180000       0.76380000
C        2.39510000      -2.41810000       0.55810000
C        1.01970000      -1.87320000       0.21950000
C        0.76580000      -0.62850000       1.16630000
C        0.40880000      -0.66550000       2.62660000
H        0.73390000       2.11970000       0.22320000
H       -0.52030000       1.91570000      -1.00280000
H       -0.94870000       1.88620000       0.70820000
H       -0.94810000      -0.42880000      -0.24410000
H        1.50900000      -0.58450000      -1.72540000
H        2.49890000       0.84780000       0.64240000
H        4.17220000      -1.23000000       1.03460000
H        2.67660000      -3.46020000       0.61610000
H        0.19330000      -2.55110000      -0.00250000
H        1.15140000      -1.24320000       3.18820000
H        0.37150000       0.34370000       3.05180000
H       -0.57180000      -1.12960000       2.78150000
