19
Properties=species:S:1:pos:R:3 gdb_105027=T pbc="F F F"
C       -0.07030000       1.54310000       0.48340000
C       -0.05950000       0.08850000      -0.03600000
C        0.86010000      -0.71910000       0.86500000
O        1.90070000      -1.21170000       0.51360000
C       -1.46840000      -0.50200000      -0.09250000
C       -2.38100000       0.05430000      -1.18460000
O       -3.70820000      -0.39430000      -1.03850000
C       -1.77980000      -1.83470000       0.44200000
O       -2.13610000      -0.64470000       1.17370000
H        0.94790000       1.93910000       0.53400000
H       -0.64960000       2.19760000      -0.17180000
H       -0.51080000       1.58700000       1.48380000
H        0.37290000       0.05210000      -1.04240000
H        0.50990000      -0.79620000       1.91880000
H       -2.32910000       1.15400000      -1.18100000
H       -2.02540000      -0.28660000      -2.16340000
H       -3.92600000      -0.27190000      -0.10470000
H       -2.62220000      -2.38140000       0.02730000
H       -1.00100000      -2.44100000       0.89990000
