14
Properties=species:S:1:pos:R:3 gdb_5146=T pbc="F F F"
C       -0.49260000      -0.71420000      -1.04900000
C       -0.12480000       0.09350000      -0.23870000
C        0.32520000       1.07500000       0.74220000
C        1.56080000       1.82680000       0.32750000
C        2.29990000       1.71310000      -0.81990000
N        3.31940000       2.63170000      -0.68660000
C        3.15250000       3.24820000       0.51610000
N        2.10220000       2.78750000       1.15430000
H       -0.82690000      -1.43090000      -1.75730000
H       -0.48190000       1.79250000       0.94190000
H        0.51340000       0.57610000       1.70230000
H        2.19590000       1.08470000      -1.68730000
H        4.04910000       2.80970000      -1.35560000
H        3.82250000       4.01800000       0.86910000
