16
Properties=species:S:1:pos:R:3 gdb_127465=T pbc="F F F"
C       -0.40190000       1.44740000       0.09290000
N       -0.19190000       0.02770000      -0.04160000
N       -0.48730000      -0.63850000      -1.21020000
C       -0.17140000      -1.87620000      -0.97490000
C       -0.32460000      -3.00670000      -1.93950000
O        0.83270000      -3.82980000      -1.98200000
N        0.32290000      -2.03730000       0.29550000
C        0.33640000      -0.79470000       0.93740000
O        0.71330000      -0.51450000       2.05610000
H        0.18740000       2.00000000      -0.64520000
H       -1.45910000       1.69810000      -0.03560000
H       -0.07970000       1.72100000       1.09890000
H       -1.13720000      -3.66970000      -1.62080000
H       -0.59640000      -2.58910000      -2.91670000
H        1.55390000      -3.30670000      -2.34870000
H        0.69940000      -2.88170000       0.69070000
