14
Properties=species:S:1:pos:R:3 gdb_12187=T pbc="F F F"
C        0.41160000       1.51060000      -0.08070000
C        0.03250000       0.04820000       0.07310000
O        0.77790000      -0.84340000      -0.79620000
C        1.32640000      -1.63870000       0.28550000
C        2.77190000      -1.66820000       0.34530000
C        3.97120000      -1.67730000       0.42190000
C        0.58890000      -0.70030000       1.28980000
O        0.51520000      -0.60540000       2.47170000
H        1.48590000       1.65140000       0.06400000
H        0.14580000       1.86240000      -1.08150000
H       -0.12810000       2.11360000       0.65580000
H       -1.05080000      -0.09380000      -0.04940000
H        0.91020000      -2.65610000       0.28520000
H        5.03160000      -1.69190000       0.48390000
