13
Properties=species:S:1:pos:R:3 gdb_47274=T pbc="F F F"
O       -0.03360000       0.06580000       0.57580000
C       -0.06500000       1.20120000       0.18720000
C       -1.30390000       2.06960000       0.10550000
C       -1.19260000       3.02220000      -1.08200000
O       -0.07350000       3.91570000      -0.94820000
C        1.15210000       3.41590000      -0.66550000
O        2.11920000       4.11630000      -0.65390000
C        1.23480000       1.90430000      -0.30470000
O        2.27780000       1.32060000      -0.37760000
H       -2.19250000       1.43690000       0.03850000
H       -1.37870000       2.65800000       1.03010000
H       -1.10690000       2.47120000      -2.02670000
H       -2.06510000       3.67300000      -1.14990000
