17
Properties=species:S:1:pos:R:3 gdb_50506=T pbc="F F F"
O       -0.02090000       0.00380000       0.03460000
C        0.01750000       1.21620000       0.05790000
N        1.16490000       1.94110000       0.10560000
C        2.48050000       1.29540000       0.03470000
C        3.46730000       2.47340000      -0.03690000
C        2.61090000       3.62470000      -0.62300000
C        1.24210000       3.39360000       0.05800000
C        3.16240000       4.95490000      -0.39740000
N        3.59810000       6.00850000      -0.20910000
H       -0.88700000       1.85650000       0.04160000
H        2.65410000       0.65680000       0.90540000
H        2.52550000       0.65330000      -0.85160000
H        3.81250000       2.75360000       0.96220000
H        4.34530000       2.25510000      -0.64630000
H        2.49590000       3.47700000      -1.70290000
H        0.40950000       3.82050000      -0.50620000
H        1.24430000       3.84300000       1.06010000
