20
Properties=species:S:1:pos:R:3 gdb_97931=T pbc="F F F"
C        1.75720000       1.24150000       0.86010000
C        0.74030000       0.30480000       0.24410000
C        0.80610000      -1.17350000       0.43750000
N       -0.29220000      -0.40170000       1.00750000
C       -0.43320000      -0.24760000       2.46080000
C        0.70900000      -0.56980000       3.32180000
C        1.64700000      -0.87730000       4.01540000
C        2.81360000      -1.14910000       4.85380000
O        3.84700000      -0.18320000       4.70650000
H        2.22160000       0.82550000       1.75540000
H        2.54880000       1.45080000       0.13240000
H        1.29730000       2.20130000       1.12370000
H        0.35230000       0.66130000      -0.71050000
H        0.53530000      -1.86000000      -0.36110000
H        1.57350000      -1.54030000       1.11650000
H       -0.75870000       0.78210000       2.65380000
H       -1.27170000      -0.88890000       2.76270000
H        2.49550000      -1.24090000       5.90460000
H        3.26440000      -2.10870000       4.57770000
H        3.45430000       0.68210000       4.86250000
