19
Properties=species:S:1:pos:R:3 gdb_47576=T pbc="F F F"
O        0.05400000      -0.08520000      -0.27410000
C       -0.05820000       1.10000000      -0.01670000
N       -1.20830000       1.81580000      -0.27970000
C       -1.64010000       2.93350000       0.55520000
C       -1.04450000       4.26040000       0.08960000
C        0.47310000       4.32550000       0.12110000
C        1.30410000       4.22200000       1.37690000
C        1.39890000       3.14790000       0.31390000
N        0.94600000       1.81640000       0.62800000
H       -1.93230000       1.20710000      -0.62920000
H       -2.73070000       2.99070000       0.49480000
H       -1.38550000       2.74340000       1.60640000
H       -1.37510000       4.42670000      -0.94220000
H       -1.46090000       5.07750000       0.69250000
H        0.86730000       5.03580000      -0.60060000
H        2.12850000       4.91230000       1.51770000
H        0.80030000       3.92160000       2.28960000
H        2.28750000       3.16020000      -0.31510000
H        1.70140000       1.18690000       0.86160000
