20
Properties=species:S:1:pos:R:3 gdb_74144=T pbc="F F F"
C       -0.02840000       1.49340000       0.01280000
C       -0.00610000       0.00140000      -0.03990000
C       -0.01660000      -0.79400000      -1.11260000
C        0.01490000      -2.19510000      -0.68880000
N        0.01510000      -3.22100000      -1.43360000
O        0.04490000      -2.21620000       0.68380000
C        0.03470000      -0.86690000       1.20850000
C        1.31780000      -0.67200000       2.02560000
C       -1.21760000      -0.71250000       2.08030000
H        0.85750000       1.88740000       0.52530000
H       -0.05880000       1.92290000      -0.99110000
H       -0.90080000       1.85980000       0.56690000
H       -0.04380000      -0.50500000      -2.15360000
H        0.04090000      -4.07000000      -0.86670000
H        2.19900000      -0.81020000       1.39370000
H        1.35340000       0.33000000       2.46330000
H        1.35500000      -1.40230000       2.83850000
H       -1.19640000      -1.44330000       2.89340000
H       -1.26610000       0.28810000       2.52010000
H       -2.12040000      -0.87890000       1.48690000
