18
Properties=species:S:1:pos:R:3 gdb_43985=T pbc="F F F"
O       -0.08080000      -0.00320000      -0.20150000
C       -0.03610000       1.19420000      -0.23670000
C       -1.15410000       2.28240000      -0.38010000
C       -0.11590000       3.25400000       0.20880000
C       -0.02510000       4.01490000       1.51170000
C        1.42890000       3.73430000       2.00270000
C        1.82660000       2.32050000       1.46730000
C        0.99120000       2.19590000       0.21910000
N        1.02070000       3.37370000      -0.67130000
H       -1.55050000       2.53240000      -1.36820000
H       -1.98630000       2.02700000       0.28300000
H       -0.22290000       5.08690000       1.41710000
H       -0.76240000       3.60330000       2.21050000
H        2.10050000       4.48030000       1.57330000
H        1.51450000       3.80240000       3.09040000
H        2.90390000       2.24030000       1.29980000
H        1.53850000       1.53010000       2.16880000
H        0.79230000       3.13470000      -1.63280000
