14
Properties=species:S:1:pos:R:3 gdb_585=T pbc="F F F"
C       -0.00160000       1.47260000       0.00270000
C        0.00830000       0.01690000       0.02390000
C        0.01740000      -1.18830000       0.04120000
C        0.03480000      -2.62290000       0.05810000
C       -0.52100000      -3.38570000       1.25050000
C       -1.26150000      -3.41000000      -0.05410000
H        0.92650000       1.86790000      -0.42550000
H       -0.83200000       1.86130000      -0.59790000
H       -0.10030000       1.88850000       1.01190000
H        0.89750000      -3.07540000      -0.42310000
H        0.01090000      -4.27740000       1.56290000
H       -0.93490000      -2.79730000       2.06060000
H       -2.17850000      -2.83810000      -0.13040000
H       -1.24270000      -4.31850000      -0.64550000
