17
Properties=species:S:1:pos:R:3 gdb_46417=T pbc="F F F"
O       -0.05130000       0.00210000      -0.17980000
C       -0.05490000       1.18320000      -0.01670000
C       -1.11740000       2.24840000       0.29460000
N       -0.01270000       3.22750000       0.49940000
C        1.03220000       2.27830000       0.01420000
C        2.20200000       2.05950000       0.96850000
C        3.02980000       3.34780000       1.13940000
C        4.14160000       3.18330000       2.07210000
N        5.01810000       3.03690000       2.81070000
H       -1.77650000       2.44300000      -0.56200000
H       -1.73730000       2.06940000       1.17950000
H       -0.10490000       4.05920000      -0.07120000
H        1.40190000       2.49660000      -0.99980000
H        1.82020000       1.74720000       1.94530000
H        2.83160000       1.24930000       0.58720000
H        3.43280000       3.67600000       0.17360000
H        2.37700000       4.14800000       1.50560000
