22
Properties=species:S:1:pos:R:3 gdb_57394=T pbc="F F F"
C       -0.35370000       1.47390000       0.03630000
C        0.05070000      -0.00200000       0.03310000
C        0.90370000      -0.34260000       1.26590000
O       -1.16000000      -0.75620000       0.07580000
C        0.77540000      -0.36360000      -1.25940000
C        0.03900000      -0.64990000      -2.50670000
N        0.65990000      -1.78770000      -1.79060000
C        2.12300000      -1.72530000      -2.14580000
C        2.28160000      -0.30500000      -1.54440000
H        0.52750000       2.12090000      -0.01370000
H       -0.99830000       1.69280000      -0.81870000
H       -0.90420000       1.71000000       0.95160000
H        0.30350000      -0.19660000       2.16770000
H        1.22510000      -1.38920000       1.23540000
H        1.79450000       0.28910000       1.33940000
H       -0.91760000      -1.66060000      -0.17170000
H       -1.04330000      -0.66210000      -2.45090000
H        0.45460000      -0.35310000      -3.46800000
H        2.67300000      -2.49780000      -1.60510000
H        2.31170000      -1.83890000      -3.21830000
H        2.61510000       0.49890000      -2.20650000
H        2.89950000      -0.29740000      -0.64610000
