15
Properties=species:S:1:pos:R:3 gdb_34694=T pbc="F F F"
N        0.05970000      -1.15410000       0.04850000
C        0.03900000       0.00070000       0.02680000
C       -0.02190000       1.46490000       0.01440000
C       -0.59320000       2.05900000       1.29850000
C        0.54100000       2.26920000       2.27090000
C       -0.00640000       3.43800000       1.47200000
C        1.26500000       3.40140000       0.57670000
C        1.80160000       2.25620000       1.36200000
N        1.32810000       2.05530000      -0.02040000
H       -0.57590000       1.78890000      -0.87290000
H       -1.59040000       1.82790000       1.64930000
H        0.49640000       2.06550000       3.33000000
H       -0.55510000       4.31010000       1.79510000
H        1.74460000       4.23120000       0.07500000
H        2.80760000       1.96330000       1.62950000
