17
Properties=species:S:1:pos:R:3 gdb_117589=T pbc="F F F"
C       -0.06130000       1.58450000      -0.10610000
C       -0.02150000       0.03540000       0.00380000
C        0.70750000      -0.45590000       1.29110000
C        0.03090000      -0.05600000       2.60050000
O        0.81350000      -0.63010000       3.63180000
C       -1.40180000      -0.48810000      -0.02570000
N       -2.49120000      -0.87140000      -0.01410000
C        0.70550000      -0.49990000      -1.16350000
N        1.30960000      -0.89400000      -2.06510000
H        0.95680000       1.97640000      -0.04920000
H       -0.50500000       1.88890000      -1.05550000
H       -0.65490000       2.00550000       0.70670000
H        0.78410000      -1.54610000       1.26240000
H        1.72650000      -0.05800000       1.27020000
H       -0.01140000       1.03950000       2.69740000
H       -1.00260000      -0.43220000       2.61690000
H        0.38550000      -0.44960000       4.47380000
