17
Properties=species:S:1:pos:R:3 gdb_114195=T pbc="F F F"
O       -0.51450000       1.62010000      -0.16400000
C       -0.13330000       0.28220000      -0.39790000
C       -1.24260000      -0.68320000       0.03270000
C       -0.94270000      -2.21360000       0.15010000
C       -1.45050000      -2.17910000       1.60420000
C       -2.39180000      -3.07170000       2.30300000
O       -1.02120000      -2.97800000       2.68270000
C       -1.48760000      -0.66100000       1.55290000
O       -1.53470000       0.22530000       2.36200000
H       -0.74110000       1.69050000       0.77270000
H        0.06290000       0.18800000      -1.47110000
H        0.79960000       0.02210000       0.12960000
H       -2.15760000      -0.46180000      -0.52540000
H       -1.48080000      -2.86950000      -0.53500000
H        0.12680000      -2.43690000       0.10010000
H       -3.10400000      -2.65250000       3.01150000
H       -2.68500000      -4.00140000       1.81740000
