21
Properties=species:S:1:pos:R:3 gdb_109978=T pbc="F F F"
C        1.01430000       0.13790000       1.16110000
C       -0.02630000       0.02880000       0.04930000
N        0.56820000      -0.23830000      -1.25080000
C        1.30390000       0.82880000      -1.98090000
C        2.81860000       0.80260000      -1.86960000
C        0.65890000       0.32230000      -3.29640000
C       -0.35870000      -0.41270000      -2.38330000
C       -0.71870000      -1.79600000      -2.69600000
N       -1.00450000      -2.88620000      -2.95240000
H        1.63300000      -0.76280000       1.19890000
H        1.67250000       0.99930000       1.01290000
H        0.52030000       0.26380000       2.12920000
H       -0.70790000      -0.80250000       0.26690000
H       -0.64440000       0.94830000       0.02470000
H        0.91850000       1.83050000      -1.72280000
H        3.19870000      -0.19730000      -2.09810000
H        3.26210000       1.51530000      -2.57390000
H        3.15480000       1.07350000      -0.86450000
H        0.24650000       1.06270000      -3.98060000
H        1.30350000      -0.36970000      -3.84030000
H       -1.28860000       0.17010000      -2.27610000
