17
Properties=species:S:1:pos:R:3 gdb_68130=T pbc="F F F"
O       -0.09920000       1.42360000      -0.00770000
C       -0.01520000       0.03770000       0.01010000
C        0.34100000      -0.79760000       1.29340000
C       -0.35210000      -1.93050000       0.44030000
C       -1.33110000      -0.78950000      -0.04900000
C        0.61520000      -1.98620000      -0.76570000
C        0.83230000      -0.70230000      -1.04590000
C       -0.82480000      -3.15640000       1.02460000
C       -1.22220000      -4.18030000       1.51500000
H        0.79180000       1.78630000       0.03910000
H        1.39480000      -0.94460000       1.53880000
H       -0.24430000      -0.50820000       2.17020000
H       -2.05760000      -0.49940000       0.71450000
H       -1.80160000      -0.92670000      -1.02370000
H        0.98270000      -2.89160000      -1.22590000
H        1.43030000      -0.23860000      -1.81820000
H       -1.57350000      -5.08320000       1.94920000
