15
Properties=species:S:1:pos:R:3 gdb_44531=T pbc="F F F"
O        0.15700000      -0.05340000      -0.17340000
C        0.02600000       1.13960000      -0.06180000
N       -1.17500000       1.84690000      -0.41430000
C       -0.97590000       3.16760000      -0.16380000
C       -1.31250000       4.47840000      -0.08030000
N        0.28240000       5.44070000       1.77750000
H        0.08350000       6.43570000       1.76790000
H       -0.35840000       5.00870000       2.43670000
C        0.11100000       4.87330000       0.45720000
C        0.36750000       3.35500000       0.33540000
C        0.99800000       2.17640000       0.43370000
H       -1.98570000       1.37390000      -0.77630000
H       -2.20450000       5.05750000      -0.28340000
H        0.70560000       5.47250000      -0.24180000
H        1.98600000       1.90710000       0.77460000
