12
Properties=species:S:1:pos:R:3 gdb_131403=T pbc="F F F"
O        0.22990000       1.31070000       0.12030000
C        0.07300000      -0.01880000       0.06780000
N        0.17770000      -0.74690000      -1.03570000
N       -0.04940000      -1.99000000      -0.60190000
N       -0.30730000      -2.12580000       0.69060000
C       -0.22780000      -0.88010000       1.14330000
O       -0.45100000      -0.52400000       2.43480000
C        0.10540000      -1.30480000       3.41900000
O       -0.12580000      -1.10890000       4.56740000
H        0.41790000       1.62410000      -0.77340000
H       -0.04360000      -2.77790000      -1.22670000
H        0.75970000      -2.08830000       3.00550000
