15
Properties=species:S:1:pos:R:3 gdb_133115=T pbc="F F F"
C        0.00280000       1.47260000       0.04200000
N       -0.04490000       0.02940000      -0.08150000
C       -1.21480000      -0.66370000      -0.02450000
N       -2.37940000      -0.02310000      -0.01170000
C       -3.49120000      -0.77870000       0.00830000
C       -3.45470000      -2.15770000       0.02690000
N       -2.27250000      -2.81610000       0.02710000
C       -1.20980000      -2.08450000       0.00120000
F       -0.01310000      -2.68990000       0.00580000
H        1.02740000       1.80410000      -0.13730000
H       -0.65480000       1.93480000      -0.69830000
H       -0.31660000       1.81910000       1.03360000
H        0.79490000      -0.50140000       0.07170000
H       -4.43730000      -0.24520000       0.01430000
H       -4.35550000      -2.76030000       0.04590000
