13
Properties=species:S:1:pos:R:3 gdb_132194=T pbc="F F F"
C        0.07460000       1.46260000      -0.03740000
C       -0.07410000      -0.01700000       0.01830000
N       -1.12730000      -0.65940000      -0.24540000
C       -1.12250000      -2.06900000      -0.14950000
N       -2.18700000      -2.70500000      -0.41550000
N        0.08470000      -2.70860000       0.24340000
C        1.06610000      -1.96060000       0.47930000
F        2.22840000      -2.42930000       0.84810000
O        1.13120000      -0.62100000       0.40990000
H        0.86290000       1.73560000      -0.74620000
H       -0.87100000       1.90720000      -0.34280000
H        0.37050000       1.84870000       0.94330000
H       -2.00940000      -3.70350000      -0.29700000
