21
Properties=species:S:1:pos:R:3 gdb_91771=T pbc="F F F"
O        0.10340000       1.39710000      -0.20690000
C        0.04210000      -0.00490000      -0.01900000
C        0.71120000      -0.53870000       1.28920000
C       -0.40630000      -1.32860000       2.01940000
C       -1.29100000      -1.79400000       0.84370000
C       -1.43470000      -0.46820000       0.08300000
O       -2.26960000       0.42400000       0.80500000
C       -1.78330000       0.78950000       2.09390000
C       -1.26780000      -0.40840000       2.90600000
H        1.02840000       1.64050000      -0.30930000
H        0.48380000      -0.51820000      -0.88660000
H        1.55390000      -1.19600000       1.05290000
H        1.09990000       0.29130000       1.88810000
H       -0.00640000      -2.15610000       2.61180000
H       -0.78250000      -2.54600000       0.22860000
H       -2.25990000      -2.19470000       1.15230000
H       -1.90070000      -0.56000000      -0.90080000
H       -0.98760000       1.53650000       1.97910000
H       -2.62390000       1.27260000       2.60090000
H       -2.10940000      -0.98570000       3.30650000
H       -0.69250000      -0.03560000       3.76220000
