19
Properties=species:S:1:pos:R:3 gdb_91092=T pbc="F F F"
C        0.27410000       1.54550000      -0.11820000
C        0.09660000       0.05350000       0.04960000
O        0.90270000      -0.74290000      -0.86410000
C        1.36030000      -1.60280000       0.20850000
C        2.84930000      -1.59740000       0.49430000
C        3.58660000      -0.30180000       0.20560000
C        3.02610000      -0.55890000       1.57160000
O        1.78310000       0.01120000       1.91800000
C        0.72290000      -0.67010000       1.26430000
H        1.28860000       1.85360000       0.14150000
H        0.06590000       1.83070000      -1.15400000
H       -0.42370000       2.08340000       0.53200000
H       -0.96170000      -0.22410000      -0.06220000
H        0.95330000      -2.61420000       0.11180000
H        3.38400000      -2.53890000       0.50480000
H        4.66330000      -0.36300000       0.08820000
H        3.08910000       0.40790000      -0.44340000
H        3.68010000      -0.69080000       2.42680000
H        0.02930000      -1.07080000       2.00940000
