17
Properties=species:S:1:pos:R:3 gdb_74705=T pbc="F F F"
N        0.02750000       1.29460000       0.07740000
C       -0.05980000      -0.06170000       0.02870000
N       -1.16480000      -0.71600000       0.00740000
C       -1.01130000      -2.17290000       0.01810000
C        0.01360000      -2.61560000       1.10220000
C        1.10990000      -2.27860000       0.03720000
C        0.03080000      -2.62920000      -1.04400000
C        1.28460000      -0.78130000       0.01980000
O        2.33470000      -0.18150000      -0.02300000
H        0.93170000       1.69220000      -0.12110000
H       -0.79670000       1.83540000      -0.12450000
H       -1.99900000      -2.63480000       0.01210000
H        0.01300000      -2.05760000       2.04190000
H       -0.01560000      -3.68950000       1.30460000
H        2.07190000      -2.79160000       0.04580000
H        0.00630000      -3.70550000      -1.23440000
H        0.04620000      -2.08270000      -1.99030000
