20
Properties=species:S:1:pos:R:3 gdb_69162=T pbc="F F F"
C       -0.05690000       1.56160000       0.09380000
C       -0.03480000       0.06490000      -0.00910000
C       -0.83020000      -0.80400000       0.87110000
N        0.65780000      -0.80280000       1.06270000
C        1.14580000      -1.64270000      -0.01760000
O        1.82660000      -2.61960000       0.03910000
C        0.60280000      -0.75570000      -1.15990000
C       -0.31470000      -1.40390000      -2.19590000
C        1.77480000      -0.03820000      -1.84440000
H        0.90550000       2.00300000      -0.17850000
H       -0.82070000       1.98070000      -0.57140000
H       -0.29470000       1.87130000       1.11530000
H       -1.34680000      -0.34400000       1.70780000
H       -1.30100000      -1.71140000       0.50300000
H       -1.18770000      -1.88060000      -1.74300000
H       -0.67200000      -0.65810000      -2.91460000
H        0.23270000      -2.17120000      -2.75220000
H        2.34240000      -0.75170000      -2.44820000
H        1.40920000       0.75440000      -2.50630000
H        2.46280000       0.40810000      -1.12070000
