12
Properties=species:S:1:pos:R:3 gdb_16262=T pbc="F F F"
O       -0.04770000       0.01030000      -0.01910000
C       -0.03740000       1.19660000       0.05690000
C       -1.13460000       2.29280000       0.15870000
C       -0.02500000       3.32880000      -0.06620000
N        0.89220000       3.17830000       1.05510000
C        1.05020000       2.26070000      -0.13660000
C        2.25890000       2.20700000      -0.88240000
N        3.23800000       2.14650000      -1.49690000
H       -1.83390000       2.19290000      -0.67590000
H       -1.67600000       2.37350000       1.10240000
H       -0.07040000       4.22830000      -0.66530000
H        1.63410000       3.87550000       0.97400000
