14
Properties=species:S:1:pos:R:3 gdb_130172=T pbc="F F F"
N       -0.06020000       1.38300000       0.15470000
C        0.03710000       0.00260000       0.03980000
N       -1.04390000      -0.75810000       0.01700000
N       -0.59550000      -2.08020000       0.05000000
C        0.75650000      -2.09200000      -0.02700000
C        1.23260000      -0.78600000       0.01180000
C        2.64490000      -0.93850000       0.01650000
N        2.99400000      -2.21530000      -0.02320000
N        1.81640000      -2.92950000      -0.03600000
H        0.62740000       1.88610000      -0.38880000
H       -0.99650000       1.71440000      -0.03900000
H       -1.24480000      -2.78940000      -0.24080000
H        3.41980000      -0.18670000       0.04690000
H        1.85770000      -3.93050000      -0.09900000
