18
Properties=species:S:1:pos:R:3 gdb_84246=T pbc="F F F"
C       -0.08370000       1.51230000      -0.07520000
C       -0.00010000      -0.00800000      -0.02090000
N        0.91220000      -0.43610000      -1.15470000
C        1.61950000      -1.30750000      -0.57290000
O        2.94430000      -1.04690000      -0.18270000
C        2.28310000      -1.04430000       1.16050000
C        1.19380000      -1.94050000       0.78680000
C        0.71170000      -0.60030000       1.23780000
C        0.15820000      -0.34750000       2.61800000
H        0.91680000       1.95140000      -0.03810000
H       -0.56400000       1.83340000      -1.00250000
H       -0.67120000       1.88950000       0.76940000
H       -1.01400000      -0.43590000      -0.08290000
H        2.96340000      -1.00810000       2.00330000
H        0.93410000      -2.95970000       1.04170000
H        0.70180000      -0.91210000       3.38190000
H        0.21470000       0.71340000       2.88200000
H       -0.89470000      -0.64930000       2.67270000
