19
Properties=species:S:1:pos:R:3 gdb_18533=T pbc="F F F"
O       -0.09300000       1.46210000      -0.03060000
C       -0.01650000       0.05080000       0.11150000
C       -1.40940000      -0.52180000      -0.11620000
C       -1.45290000      -2.04090000      -0.01100000
C       -1.25280000      -2.72980000       1.39670000
C       -2.62000000      -3.39610000       1.21940000
N       -3.59850000      -2.28740000       1.09670000
C       -2.82650000      -2.72690000      -0.09240000
H        0.77880000       1.82860000       0.14270000
H        0.68980000      -0.38300000      -0.61690000
H        0.34340000      -0.22810000       1.11540000
H       -2.10200000      -0.08610000       0.61040000
H       -1.75120000      -0.20940000      -1.11150000
H       -0.76940000      -2.49540000      -0.73680000
H       -0.41690000      -3.43240000       1.40700000
H       -1.18060000      -2.06010000       2.25790000
H       -2.93430000      -4.37490000       1.56030000
H       -4.52310000      -2.71060000       1.01920000
H       -3.33900000      -3.07030000      -0.98350000
