15
Properties=species:S:1:pos:R:3 gdb_22766=T pbc="F F F"
C       -0.60590000       1.39850000       0.04110000
C       -0.03680000      -0.00560000      -0.02100000
O        1.18900000      -0.09040000      -0.82180000
C        1.97800000      -0.58210000       0.28200000
C        3.09180000       0.30250000       0.63430000
N        3.96790000       1.00460000       0.90660000
C        0.74230000      -0.51510000       1.16790000
N        0.43660000      -0.76800000       2.36340000
O        1.53850000      -1.22870000       3.08440000
H        0.13630000       2.10350000       0.42360000
H       -0.91420000       1.71820000      -0.95840000
H       -1.48110000       1.41490000       0.69790000
H       -0.78180000      -0.71720000      -0.39910000
H        2.36030000      -1.59570000       0.10590000
H        1.17860000      -1.35200000       3.97030000
