21
Properties=species:S:1:pos:R:3 gdb_68591=T pbc="F F F"
C        0.04040000       1.52070000       0.08300000
C       -0.01540000       0.02130000       0.00510000
C        0.80860000      -0.71000000      -1.08130000
C        0.58980000      -2.17170000      -0.58210000
C       -0.28560000      -1.83040000       0.63450000
O        0.40990000      -0.68850000       1.21920000
C       -1.32870000      -0.81740000       0.06810000
C       -2.35970000      -0.34510000       1.07990000
O       -1.90860000      -1.07550000      -1.19190000
H        1.07380000       1.85730000       0.21480000
H       -0.34270000       1.95760000      -0.84470000
H       -0.55280000       1.90270000       0.91830000
H        0.42080000      -0.53710000      -2.08680000
H        1.85490000      -0.39830000      -1.03970000
H        0.06800000      -2.79660000      -1.30950000
H        1.51620000      -2.66390000      -0.27960000
H       -0.53740000      -2.61010000       1.35510000
H       -1.89200000      -0.13280000       2.04230000
H       -2.86740000       0.55690000       0.72260000
H       -3.12080000      -1.12040000       1.23750000
H       -2.78770000      -1.44170000      -1.05530000
