16
Properties=species:S:1:pos:R:3 gdb_76932=T pbc="F F F"
C       -0.04000000       1.56420000      -0.14780000
C        0.02220000       0.04630000      -0.03490000
C       -1.14640000      -0.63710000      -0.53560000
N       -2.08510000      -1.17900000      -0.93920000
C        1.33030000      -0.67790000      -0.20070000
O        2.42720000       0.12780000      -0.47540000
C        0.68970000      -0.65340000       1.18300000
C        1.28110000       0.15000000       2.28390000
O        1.23820000      -0.19470000       3.43960000
H        0.93070000       2.01090000       0.06400000
H       -0.32150000       1.84180000      -1.16680000
H       -0.78580000       1.97480000       0.53750000
H        1.30490000      -1.63430000      -0.71990000
H        3.22360000      -0.32590000      -0.17780000
H        0.21800000      -1.56940000       1.52080000
H        1.78880000       1.08780000       1.98320000
