23
Properties=species:S:1:pos:R:3 gdb_93910=T pbc="F F F"
C       -0.14560000       1.63700000      -0.05210000
C       -0.05810000       0.10410000      -0.01770000
C        0.84940000      -0.41320000      -1.14560000
C        0.67560000      -1.89660000      -1.48430000
C        1.28640000      -2.90400000      -0.50390000
O        2.72320000      -2.83590000      -0.52560000
C        0.80040000      -2.86810000       0.92620000
C        0.45920000      -1.82630000       1.68960000
C        0.38020000      -0.35000000       1.38470000
H        0.84230000       2.09020000       0.09470000
H       -0.53140000       1.98890000      -1.01420000
H       -0.80540000       2.01950000       0.73400000
H       -1.06690000      -0.29600000      -0.19510000
H        0.63680000       0.16770000      -2.05120000
H        1.90210000      -0.20820000      -0.90420000
H       -0.39260000      -2.12450000      -1.59770000
H        1.14480000      -2.09610000      -2.45450000
H        1.06250000      -3.90120000      -0.90240000
H        2.98800000      -2.20260000       0.14870000
H        0.82980000      -3.83910000       1.41720000
H        0.23600000      -2.05930000       2.73050000
H        1.36110000       0.10260000       1.60710000
H       -0.30260000       0.10140000       2.11510000
