22
Properties=species:S:1:pos:R:3 gdb_10604=T pbc="F F F"
C        0.87380000      -0.02860000      -1.24780000
C       -0.05480000      -0.12280000      -0.03030000
C        0.62120000      -0.66990000       1.22140000
C        1.76510000       0.15140000       1.80550000
C        1.34090000       1.52600000       2.33730000
C       -0.25850000      -1.41690000       2.21450000
C        0.72970000      -2.16590000       1.35160000
O        0.27200000      -2.94760000       0.28360000
H        1.28000000      -1.01340000      -1.49700000
H        0.32860000       0.34330000      -2.12120000
H        1.71400000       0.65160000      -1.07420000
H       -0.48110000       0.86390000       0.19070000
H       -0.89620000      -0.77350000      -0.28320000
H        2.22410000      -0.41870000       2.62280000
H        2.55150000       0.27670000       1.05090000
H        2.18830000       2.04430000       2.79680000
H        0.95600000       2.16890000       1.53970000
H        0.55480000       1.42970000       3.09390000
H       -0.05450000      -1.32120000       3.27650000
H       -1.30860000      -1.52690000       1.96270000
H        1.62440000      -2.55590000       1.83890000
H       -0.17680000      -3.71660000       0.64950000
