20
Properties=species:S:1:pos:R:3 gdb_108691=T pbc="F F F"
C       -0.59120000      -0.76010000       1.15690000
N       -0.07020000      -0.08290000      -0.01530000
C        0.68680000      -0.67530000      -0.97480000
C        1.40140000      -0.07640000      -1.97980000
C        1.99740000      -1.11050000      -2.91070000
C        1.89810000      -2.41950000      -2.09510000
C        0.74820000      -2.18460000      -1.09040000
C        1.56240000       1.33660000      -2.18590000
O        2.17050000       1.84890000      -3.11130000
H       -1.11570000      -1.67630000       0.87330000
H        0.18730000      -1.02020000       1.88840000
H       -1.31310000      -0.10380000       1.64830000
H       -0.03360000       0.92250000       0.03470000
H        1.42550000      -1.17530000      -3.84660000
H        3.02400000      -0.86570000      -3.19750000
H        1.73400000      -3.30410000      -2.71520000
H        2.82900000      -2.57800000      -1.54140000
H        0.91520000      -2.67940000      -0.12810000
H       -0.21330000      -2.55910000      -1.47040000
H        1.09130000       1.99330000      -1.41080000
