14
Properties=species:S:1:pos:R:3 gdb_49875=T pbc="F F F"
N        0.00060000       1.36560000       0.01040000
C        0.03960000       0.10380000       0.00350000
N        1.15090000      -0.75810000      -0.00750000
C        0.84260000      -2.10030000      -0.01330000
O        1.61330000      -3.02450000      -0.02280000
C       -0.68340000      -2.15770000      -0.00490000
N       -1.08040000      -0.75210000       0.00550000
C       -2.41820000      -0.37860000       0.01800000
O       -2.85450000       0.73840000       0.02830000
H        0.93680000       1.76620000       0.00730000
H        2.10090000      -0.42070000      -0.01130000
H       -1.03810000      -2.68910000      -0.89420000
H       -1.02820000      -2.69940000       0.88210000
H       -3.05830000      -1.28500000       0.01730000
