21
Properties=species:S:1:pos:R:3 gdb_119106=T pbc="F F F"
C        0.10220000       1.56220000       0.17300000
C        0.28790000       0.06910000      -0.03350000
O        0.46680000      -0.53150000       1.24440000
C        0.65790000      -1.91770000       1.20800000
C        2.07030000      -2.40870000       0.92310000
C        1.52130000      -2.44090000       2.32710000
C       -0.46460000      -2.70070000       0.75020000
C       -1.41200000      -3.33720000       0.36280000
C       -2.55670000      -4.11200000      -0.09360000
H        0.97750000       1.99680000       0.66460000
H       -0.04060000       2.06380000      -0.78890000
H       -0.77300000       1.75670000       0.79950000
H       -0.58760000      -0.36900000      -0.53340000
H        1.16440000      -0.13350000      -0.66850000
H        2.19000000      -3.34240000       0.38660000
H        2.80040000      -1.64150000       0.69110000
H        1.88000000      -1.69230000       3.02400000
H        1.25640000      -3.39630000       2.76330000
H       -2.56550000      -5.10790000       0.36350000
H       -3.49850000      -3.62020000       0.17380000
H       -2.54810000      -4.24640000      -1.18110000
