21
Properties=species:S:1:pos:R:3 gdb_57255=T pbc="F F F"
C       -0.24480000       1.52930000      -0.13480000
C        0.01800000       0.00820000      -0.00450000
C        0.81340000      -0.28850000       1.28930000
C       -1.29460000      -0.65250000       0.11050000
N       -2.33060000      -1.15840000       0.19990000
C        0.75880000      -0.53790000      -1.25320000
C        2.10080000       0.10490000      -1.55400000
C        0.55700000      -1.95560000      -1.65190000
N       -0.01350000      -0.86100000      -2.46380000
H        0.69910000       2.07860000      -0.11610000
H       -0.76310000       1.75950000      -1.06920000
H       -0.85980000       1.88310000       0.69650000
H        0.25530000       0.04570000       2.16780000
H        1.00970000      -1.35860000       1.39110000
H        1.76880000       0.24140000       1.27330000
H        2.81880000      -0.04460000      -0.74180000
H        2.51250000      -0.34490000      -2.45970000
H        2.00660000       1.17920000      -1.73780000
H        1.37360000      -2.49800000      -2.12070000
H       -0.12500000      -2.57170000      -1.07330000
H       -1.01390000      -0.80240000      -2.28150000
