20
Properties=species:S:1:pos:R:3 gdb_61888=T pbc="F F F"
C       -0.23330000       1.58510000       0.06770000
N       -0.08240000       0.13120000       0.09400000
C        0.67410000      -0.29960000       1.25550000
C        2.14890000       0.05040000       1.11520000
O        2.89040000       0.26060000       2.03790000
C       -1.35340000      -0.56880000      -0.06020000
C       -1.92290000      -0.41790000      -1.45080000
C       -3.36100000      -0.55400000      -1.70920000
O       -2.73940000       0.73050000      -1.70860000
H        0.75260000       2.05990000       0.09600000
H       -0.73800000       1.89700000      -0.84750000
H       -0.81740000       1.96370000       0.92660000
H        0.30500000       0.09610000       2.21870000
H        0.63150000      -1.39620000       1.32130000
H        2.49720000       0.06520000       0.05710000
H       -1.17390000      -1.63620000       0.11780000
H       -2.11510000      -0.23690000       0.67060000
H       -1.22550000      -0.65490000      -2.25510000
H       -3.70340000      -0.91090000      -2.67910000
H       -4.04080000      -0.74310000      -0.87910000
