16
Properties=species:S:1:pos:R:3 gdb_115262=T pbc="F F F"
O        0.06960000       1.42590000      -0.01700000
C        0.07940000       0.02180000      -0.10560000
C       -1.33000000      -0.55460000       0.04460000
C       -1.41450000      -2.10610000       0.02170000
N       -2.37960000      -2.35670000       1.10350000
C       -2.41560000      -1.19460000       1.85430000
N       -1.88980000      -0.14230000       1.35090000
C       -3.07280000      -1.21120000       3.13440000
N       -3.59430000      -1.26520000       4.16390000
H       -0.42910000       1.64190000       0.78120000
H        0.48850000      -0.23780000      -1.08870000
H        0.73040000      -0.43580000       0.65900000
H       -1.96350000      -0.11460000      -0.73630000
H       -1.77730000      -2.50040000      -0.92960000
H       -0.44040000      -2.56590000       0.24290000
H       -2.37580000      -3.24510000       1.58330000
