17
Properties=species:S:1:pos:R:3 gdb_62300=T pbc="F F F"
C       -0.14830000       1.57580000       0.03490000
C       -0.03930000       0.05850000      -0.04320000
C       -1.35770000      -0.56020000       0.12300000
N       -2.40360000      -1.04060000       0.23330000
C        0.88250000      -0.61320000      -1.07570000
C        2.11890000      -0.26140000      -0.19700000
C        2.63450000      -1.70060000      -0.15320000
C        1.11060000      -1.79950000      -0.09260000
N        1.02830000      -0.57780000       0.87280000
H        0.82530000       2.04550000      -0.12030000
H       -0.83780000       1.95050000      -0.72700000
H       -0.52640000       1.87650000       1.01590000
H        0.79940000      -0.63510000      -2.16640000
H        2.67810000       0.67290000      -0.16170000
H        3.11930000      -2.07880000      -1.05600000
H        3.17290000      -1.99090000       0.75220000
H        0.46340000      -2.66190000       0.06360000
