13
Properties=species:S:1:pos:R:3 gdb_15495=T pbc="F F F"
O       -0.08980000      -0.05660000      -0.00080000
C       -0.03890000       1.14890000       0.00810000
N        1.15130000       1.86170000       0.00020000
C        2.44410000       1.29040000      -0.01880000
C        3.38590000       2.23410000      -0.02250000
C        2.73900000       3.59330000      -0.00510000
C        1.24100000       3.27540000       0.01030000
O        0.30220000       4.02720000       0.02580000
H       -0.91010000       1.82100000       0.02310000
H        2.51770000       0.21410000      -0.02780000
H        4.45070000       2.05800000      -0.03620000
H        2.99340000       4.19600000       0.87460000
H        2.97280000       4.20870000      -0.88170000
