21
Properties=species:S:1:pos:R:3 gdb_120459=T pbc="F F F"
C       -0.07140000       1.48520000       0.34920000
C       -0.08480000      -0.03420000       0.16460000
C       -1.48940000      -0.58870000      -0.10320000
C       -1.50170000      -2.10230000      -0.25490000
O       -1.14670000      -2.82180000       0.95570000
C       -2.37210000      -3.59750000       0.98730000
C       -3.15980000      -3.46200000       2.27770000
C       -2.85860000      -2.81950000      -0.24540000
O       -3.86770000      -2.75910000      -0.88010000
H        0.94180000       1.85230000       0.53900000
H       -0.45080000       1.99780000      -0.54180000
H       -0.69840000       1.78670000       1.19560000
H        0.57590000      -0.31240000      -0.66690000
H        0.32080000      -0.52350000       1.05730000
H       -2.16440000      -0.30470000       0.71380000
H       -1.90400000      -0.15570000      -1.02300000
H       -0.86450000      -2.41200000      -1.09760000
H       -2.17400000      -4.65560000       0.76050000
H       -3.38490000      -2.41380000       2.49220000
H       -4.10150000      -4.01360000       2.19670000
H       -2.58790000      -3.87240000       3.11500000
