18
Properties=species:S:1:pos:R:3 gdb_39304=T pbc="F F F"
C       -0.04480000       1.55700000      -0.05680000
O        1.31620000       2.02130000      -0.06820000
C        2.12880000       0.92880000      -0.43880000
C        2.60420000      -0.07960000       0.66870000
C        1.61880000      -0.06420000       1.83080000
O        0.30770000      -0.39070000       1.36640000
C        0.04480000       0.02780000       0.03820000
C        1.27120000      -0.26500000      -0.87710000
N        2.19190000      -1.23680000      -0.20780000
H       -0.56330000       1.98560000       0.80490000
H       -0.55680000       1.87620000      -0.97690000
H        2.92560000       1.26220000      -1.10800000
H        3.64370000      -0.06400000       1.00370000
H        1.87870000      -0.82910000       2.56840000
H        1.63030000       0.92170000       2.31710000
H       -0.87520000      -0.47510000      -0.26710000
H        1.00810000      -0.45240000      -1.91980000
H        2.95230000      -1.42540000      -0.85880000
