13
Properties=species:S:1:pos:R:3 gdb_4892=T pbc="F F F"
C       -0.03880000       1.39010000      -0.08150000
O        0.49480000       0.07000000       0.12680000
C        0.79990000      -0.60690000      -0.97010000
C        0.55490000      -1.85780000      -1.34960000
O        1.21600000      -2.08320000      -2.55720000
C        1.83250000      -0.91110000      -2.90290000
N        2.51430000      -0.65300000      -3.92510000
O        1.59490000       0.01330000      -1.92150000
H        0.68040000       2.01940000      -0.61110000
H       -0.97520000       1.33740000      -0.64740000
H       -0.22710000       1.79250000       0.91350000
H        0.00180000      -2.66880000      -0.91560000
H        2.57130000      -1.46830000      -4.52970000
