15
Properties=species:S:1:pos:R:3 gdb_4184=T pbc="F F F"
O       -0.09950000       1.36390000       0.19260000
N        0.05300000      -0.03080000       0.27230000
C       -1.02530000      -0.62250000      -0.02790000
C       -2.44730000      -0.20880000      -0.37820000
C       -2.80230000      -1.72010000      -0.43390000
O       -2.64370000      -2.28210000      -1.74830000
C       -1.30440000      -2.74050000      -1.45140000
C       -1.33430000      -2.10210000      -0.04300000
H        0.77180000       1.67980000       0.45510000
H       -2.93540000       0.34610000       0.43050000
H       -2.58740000       0.33290000      -1.31670000
H       -3.70520000      -2.06680000       0.07260000
H       -1.25650000      -3.83620000      -1.43610000
H       -0.55780000      -2.35290000      -2.15280000
H       -1.02950000      -2.71100000       0.80650000
