15
Properties=species:S:1:pos:R:3 gdb_9069=T pbc="F F F"
O        0.00190000       1.44480000      -0.07320000
C        0.01610000       0.04630000      -0.00780000
C        0.67680000      -0.56290000      -1.25720000
C       -0.03540000      -0.08020000      -2.53500000
C        0.58220000      -0.61060000      -3.74710000
N        1.08230000      -1.04300000      -4.69480000
C        0.73250000      -0.41740000       1.24670000
O        1.20550000       0.37080000       2.02810000
H        0.47030000       1.75150000       0.72010000
H       -1.01750000      -0.34340000       0.05980000
H        1.72850000      -0.26050000      -1.29250000
H        0.64620000      -1.65650000      -1.20100000
H       -1.09020000      -0.37940000      -2.51930000
H       -0.01430000       1.01320000      -2.56600000
H        0.79940000      -1.51260000       1.40480000
