17
Properties=species:S:1:pos:R:3 gdb_37415=T pbc="F F F"
C        0.00150000       1.59670000      -0.07060000
C        1.52930000       1.79530000      -0.00820000
O        1.92870000       0.97660000      -1.15760000
C        1.56860000      -0.12390000      -0.30350000
C        2.06990000       0.65440000       0.93650000
C        1.27470000       0.13480000       2.12460000
O        0.05200000       0.79510000       2.46170000
C       -0.00900000      -0.32300000       1.55940000
C        0.03110000       0.04650000       0.06490000
H       -0.56220000       2.08810000       0.71830000
H       -0.35200000       1.91600000      -1.05280000
H        1.94530000       2.80200000      -0.01540000
H        1.93870000      -1.09790000      -0.62540000
H        3.15100000       0.69170000       1.05670000
H        1.78670000      -0.34410000       2.95460000
H       -0.57050000      -1.17800000       1.92360000
H       -0.67950000      -0.49880000      -0.55400000
