13
Properties=species:S:1:pos:R:3 gdb_131084=T pbc="F F F"
O        0.41650000       0.17940000      -0.42090000
C        0.50030000       1.36530000      -0.46800000
O        0.77110000       2.11100000       0.63540000
C        0.90110000       3.51800000       0.45100000
C        2.31870000       3.88940000       0.14180000
N        3.03520000       3.50880000      -0.87190000
C        4.22720000       4.14210000      -0.62110000
N        4.25270000       4.87050000       0.46160000
O        2.96610000       4.70000000       0.98400000
H        0.35920000       1.97870000      -1.37680000
H        0.25080000       3.86580000      -0.36060000
H        0.58770000       3.99330000       1.38100000
H        5.09270000       4.05990000      -1.26210000
