17
Properties=species:S:1:pos:R:3 gdb_61211=T pbc="F F F"
O       -0.00830000       1.49330000      -0.05660000
C        0.03570000       0.08430000      -0.03050000
C        0.65330000      -0.51030000      -1.31730000
C       -0.07790000      -0.13620000      -2.51910000
C       -0.69560000       0.16290000      -3.50520000
C        0.82510000      -0.37230000       1.21290000
O        2.11580000       0.18490000       1.17080000
C        0.11970000       0.07210000       2.48120000
O        0.69010000       0.72510000       3.31990000
H        0.90370000       1.78720000       0.07360000
H       -1.00260000      -0.25740000       0.05390000
H        1.69630000      -0.17740000      -1.38430000
H        0.68250000      -1.60430000      -1.22620000
H       -1.23470000       0.43500000      -4.37840000
H        0.86670000      -1.47660000       1.23420000
H        2.24340000       0.60390000       2.03860000
H       -0.93530000      -0.24500000       2.59940000
