19
Properties=species:S:1:pos:R:3 gdb_78184=T pbc="F F F"
C        0.02020000       1.67940000      -0.46050000
C        0.02440000       0.16600000      -0.42110000
C        0.53740000      -0.77310000      -1.43710000
C        1.86970000      -0.35310000      -2.07790000
C        1.91580000       0.83060000      -2.92420000
N        1.97590000       1.77460000      -3.59010000
C        2.44210000      -0.31780000      -0.61240000
C        3.15790000       0.88960000      -0.03540000
N        1.12180000      -0.74800000      -0.02630000
H        0.76790000       2.11290000      -1.12220000
H       -0.95900000       2.01300000      -0.81970000
H        0.15930000       2.08840000       0.54560000
H       -0.88090000      -0.21900000       0.04810000
H       -0.03730000      -1.61710000      -1.80480000
H        2.31590000      -1.17810000      -2.63760000
H        3.09810000      -1.18550000      -0.50230000
H        2.63800000       1.83160000      -0.20530000
H        3.27580000       0.75260000       1.04440000
H        4.15700000       0.97350000      -0.47510000
