18
Properties=species:S:1:pos:R:3 gdb_66818=T pbc="F F F"
C        0.02480000       1.63060000      -0.22090000
C        0.10620000       0.13500000      -0.07450000
C        0.62670000      -0.81680000      -1.14720000
C        1.09680000      -1.97930000      -0.36780000
C        1.20260000      -1.66690000       1.05150000
C        0.49360000      -0.52510000       1.27400000
C       -0.96560000      -0.81300000       1.66690000
C       -1.10420000      -0.81660000       0.09260000
N       -0.41940000      -1.84480000      -0.81580000
H        1.02650000       2.07370000      -0.24960000
H       -0.49480000       1.91300000      -1.14330000
H       -0.50960000       2.08200000       0.62130000
H        0.92010000      -0.59100000      -2.16630000
H        1.55910000      -2.82970000      -0.85420000
H        1.27030000      -2.46320000       1.78700000
H       -1.15410000      -1.72720000       2.23060000
H       -1.55970000       0.01420000       2.07180000
H       -2.08090000      -0.58460000      -0.33860000
