21
Properties=species:S:1:pos:R:3 gdb_73391=T pbc="F F F"
C        0.02170000       1.54960000      -0.04950000
C        0.03340000       0.04010000       0.00990000
C        0.45470000      -0.69640000      -1.26670000
C        0.33530000      -2.17470000      -0.79750000
C       -0.12570000      -1.93630000       0.63560000
C        0.74690000      -0.74950000       1.19150000
C       -0.02780000      -0.31710000       2.42840000
C       -1.30120000      -0.34320000       2.02310000
C       -1.20220000      -0.78910000       0.57110000
H        1.01770000       1.93820000      -0.29190000
H       -0.66460000       1.90410000      -0.82750000
H       -0.29080000       1.98330000       0.90450000
H       -0.20800000      -0.46180000      -2.10670000
H        1.47190000      -0.42780000      -1.57190000
H       -0.39430000      -2.74680000      -1.37940000
H        1.28740000      -2.71280000      -0.84410000
H       -0.31200000      -2.80070000       1.27580000
H        1.83580000      -0.82300000       1.24010000
H        0.39070000      -0.05390000       3.38940000
H       -2.20750000      -0.10710000       2.56240000
H       -2.11530000      -0.90310000      -0.01770000
