18
Properties=species:S:1:pos:R:3 gdb_103820=T pbc="F F F"
N        0.13330000       1.25310000      -0.01370000
H       -0.46120000       1.19480000      -0.83570000
H        1.13580000       0.00450000       0.75870000
H        0.77900000       2.02380000      -0.17220000
C       -0.69340000       1.51830000       1.15200000
C       -1.41000000       2.84890000       1.16320000
O       -2.23430000       2.89090000       0.00630000
C       -1.37760000       0.32220000       1.73770000
C       -0.20920000       0.95630000       2.48060000
C        1.08160000       0.19620000       2.65360000
O        1.59580000       0.07710000       3.73600000
O        1.60370000      -0.36180000       1.55170000
H       -1.99910000       2.94870000       2.08700000
H       -0.66930000       3.66560000       1.15270000
H       -2.61600000       3.77060000      -0.06600000
H       -2.36900000       0.44590000       2.15730000
H       -1.19550000      -0.63680000       1.26640000
H       -0.45370000       1.52560000       3.36960000
