18
Properties=species:S:1:pos:R:3 gdb_55969=T pbc="F F F"
C        0.14320000       0.89220000      -0.85040000
C        0.04840000      -0.01130000       0.35720000
O        0.92320000      -0.09850000       1.18740000
C       -1.20880000      -0.88530000       0.47930000
C       -0.90490000      -2.31150000       0.01080000
C       -2.06170000      -3.35920000       0.02450000
N       -1.85490000      -3.50580000      -1.41910000
C       -0.88250000      -2.54580000      -1.52490000
O       -0.29300000      -2.07450000      -2.46360000
H        1.06940000       1.46700000      -0.81850000
H        0.11310000       0.27010000      -1.75320000
H       -0.71800000       1.56880000      -0.89340000
H       -1.48670000      -0.90750000       1.53790000
H       -2.04360000      -0.46830000      -0.09430000
H        0.00300000      -2.67610000       0.49800000
H       -1.86990000      -4.26750000       0.60330000
H       -3.04050000      -2.94890000       0.29460000
H       -2.34850000      -4.03470000      -2.12270000
