21
Properties=species:S:1:pos:R:3 gdb_119428=T pbc="F F F"
C       -1.03060000       1.25340000       0.56640000
O       -1.20690000      -0.14450000       0.52290000
C       -0.54430000      -0.75940000      -0.57780000
C       -0.77180000      -2.23670000      -0.47690000
C       -0.61250000      -2.99750000       0.82950000
C       -1.95960000      -2.95290000       0.15950000
O       -3.10440000      -2.44120000       0.74180000
C       -2.02750000      -3.95250000      -0.99150000
C       -0.79070000      -3.23770000      -1.63980000
H       -1.55880000       1.62390000       1.44800000
H        0.03340000       1.52220000       0.64820000
H       -1.44250000       1.74320000      -0.32920000
H       -0.95480000      -0.37200000      -1.52630000
H        0.52800000      -0.49720000      -0.55750000
H       -0.01650000      -3.90850000       0.87220000
H       -0.53680000      -2.36150000       1.70540000
H       -2.89620000      -1.53190000       0.99340000
H       -1.91980000      -5.00940000      -0.72840000
H       -2.93220000      -3.82320000      -1.58880000
H       -1.03780000      -2.77740000      -2.60030000
H        0.11450000      -3.84170000      -1.76370000
