19
Properties=species:S:1:pos:R:3 gdb_38628=T pbc="F F F"
C       -0.04020000       1.56070000       0.09460000
C        1.51360000       1.35670000      -0.02840000
C        1.89160000       0.68720000       1.30500000
C        1.00090000      -0.54160000       1.10150000
C        1.48040000      -1.27910000      -0.15760000
O        0.34140000      -2.08980000      -0.55460000
C       -0.80490000      -1.20160000      -0.39460000
C       -0.05030000       0.02980000       0.03760000
C        1.22980000       0.05730000      -0.87320000
H       -0.42800000       2.07120000       0.98210000
H       -0.46640000       2.00780000      -0.80790000
H        2.15110000       2.15470000      -0.40820000
H        2.95570000       0.44100000       1.38110000
H        1.61230000       1.28620000       2.17740000
H        0.66180000      -1.11420000       1.96510000
H        2.37350000      -1.90240000      -0.22210000
H       -1.33050000      -1.09740000      -1.35050000
H       -1.49070000      -1.62090000       0.35100000
H        1.13620000       0.13030000      -1.95630000
