21
Properties=species:S:1:pos:R:3 gdb_94878=T pbc="F F F"
C        0.08190000       1.59590000      -0.07560000
C        0.05510000       0.07750000       0.01270000
O        0.80040000      -0.44260000      -1.10900000
C        1.24680000      -1.77350000      -0.81440000
C        1.47690000      -1.78390000       0.67870000
C        2.20510000      -0.61460000       1.27720000
C        0.70420000      -0.57540000       1.21610000
C        0.06200000      -1.45240000       2.30950000
C        0.84840000      -2.68790000       1.75690000
H        1.10500000       1.96980000       0.02110000
H       -0.32050000       1.93250000      -1.03510000
H       -0.52400000       2.03090000       0.72520000
H       -0.99110000      -0.27220000      -0.04330000
H        0.48140000      -2.52130000      -1.08060000
H        2.12900000      -1.94780000      -1.43940000
H        2.69680000      -0.72570000       2.23950000
H        2.72530000       0.02470000       0.57230000
H        0.26510000      -1.15350000       3.34240000
H       -1.01930000      -1.55390000       2.18730000
H        0.18870000      -3.45010000       1.33480000
H        1.54990000      -3.17840000       2.43860000
