15
Properties=species:S:1:pos:R:3 gdb_42612=T pbc="F F F"
O        0.07210000       0.06480000      -0.22990000
C       -0.00460000       1.23450000       0.00370000
C       -1.12910000       2.20420000       0.08360000
C       -0.78380000       3.37710000       1.01440000
C        0.21200000       3.19760000       2.14570000
C        1.47330000       2.65710000       1.44550000
O        2.54390000       2.46140000       1.95370000
C        1.08140000       2.37820000       0.00150000
C       -0.11340000       3.31450000      -0.31350000
H       -2.14600000       2.03950000      -0.25040000
H       -1.61360000       4.06240000       1.14370000
H        0.44490000       4.15340000       2.62640000
H       -0.10770000       2.50440000       2.93050000
H        1.90600000       2.23870000      -0.69220000
H       -0.19280000       4.00790000      -1.13760000
