18
Properties=species:S:1:pos:R:3 gdb_85778=T pbc="F F F"
C        0.19030000       1.43360000      -0.08090000
N        0.04440000       0.00120000      -0.06660000
C       -1.13400000      -0.87580000      -0.13220000
C       -0.16340000      -2.08010000      -0.09400000
C       -0.08010000      -2.95380000      -1.33450000
C        1.01130000      -4.00040000      -1.29610000
O       -0.80460000      -2.78130000      -2.28780000
C        0.96930000      -1.00090000      -0.03240000
O        2.17260000      -1.01780000       0.00650000
H        1.25830000       1.66050000      -0.04650000
H       -0.23560000       1.86800000      -0.99320000
H       -0.29810000       1.89520000       0.78570000
H       -1.80250000      -0.78280000       0.72990000
H       -1.69730000      -0.79800000      -1.06540000
H       -0.19350000      -2.68800000       0.81400000
H        0.79960000      -4.73750000      -0.51260000
H        1.08540000      -4.50320000      -2.26080000
H        1.96190000      -3.52090000      -1.03480000
