22
Properties=species:S:1:pos:R:3 gdb_88473=T pbc="F F F"
C       -0.45210000       1.09770000      -0.19360000
N        0.07080000      -0.25350000      -0.00080000
C        1.44860000      -0.51220000      -0.41160000
C        1.07030000      -0.52920000       1.02800000
C        1.62680000       0.48570000       2.01530000
C        0.62290000       0.82960000       3.10870000
C        3.05480000       0.12260000       2.51280000
C        3.48980000       1.40970000       1.78960000
O        2.13740000       1.69450000       1.37710000
H        0.27330000       1.89780000      -0.00440000
H       -0.80570000       1.17960000      -1.22680000
H       -1.31720000       1.24290000       0.46220000
H        1.62070000      -1.43730000      -0.95690000
H        2.04080000       0.34000000      -0.73950000
H        0.92340000      -1.49790000       1.50990000
H        0.30590000      -0.07700000       3.63530000
H        1.06700000       1.51620000       3.83520000
H       -0.26560000       1.30510000       2.68490000
H        3.17790000       0.12770000       3.59730000
H        3.46160000      -0.80420000       2.10540000
H        3.89450000       2.20580000       2.42530000
H        4.15760000       1.26740000       0.93170000
