9
Properties=species:S:1:pos:R:3 gdb_23803=T pbc="F F F"
F        0.03960000       0.05780000       0.00260000
C       -0.05370000       1.36520000       0.01100000
C       -1.22770000       2.01380000       0.03070000
C       -1.19710000       3.46170000       0.03830000
O       -2.12290000       4.21720000       0.05420000
O        0.10320000       4.00220000       0.02270000
N        1.27010000       3.22710000       0.00250000
N        1.18020000       1.98760000      -0.00270000
H       -2.18250000       1.50590000       0.04100000
