20
Properties=species:S:1:pos:R:3 gdb_105699=T pbc="F F F"
O        0.07950000       1.47110000       0.65850000
C       -0.01430000       0.14140000       0.16750000
C       -1.42200000      -0.42810000       0.23560000
C       -2.41700000       0.25650000      -0.69440000
C       -3.84610000      -0.30410000      -0.64410000
C       -4.84200000       0.64330000      -1.26760000
O       -5.62420000       0.35800000      -2.13700000
C       -1.54090000      -1.86010000       0.61870000
N       -1.94190000      -0.79940000       1.55820000
H       -0.27800000       2.06750000      -0.00570000
H        0.36790000       0.06890000      -0.86270000
H        0.64920000      -0.45560000       0.80350000
H       -2.44840000       1.32080000      -0.41880000
H       -2.03600000       0.21040000      -1.72300000
H       -3.93010000      -1.27190000      -1.14460000
H       -4.11930000      -0.42990000       0.41310000
H       -4.80700000       1.67770000      -0.84770000
H       -2.35710000      -2.46890000       0.24180000
H       -0.62430000      -2.41310000       0.81040000
H       -1.23240000      -0.65240000       2.27180000
