17
Properties=species:S:1:pos:R:3 gdb_45099=T pbc="F F F"
O       -0.30640000       0.64850000       1.23800000
C       -0.17210000       1.35710000       0.26860000
C       -1.30800000       1.77970000      -0.66650000
N       -1.45150000       3.24240000      -0.78880000
C       -1.18130000       3.99960000       0.43690000
C       -0.19380000       4.01300000      -0.67820000
C        1.10450000       3.25760000      -0.63280000
C        1.80590000       2.86440000       0.64110000
N        1.05310000       1.89410000      -0.13040000
H       -1.13290000       1.37410000      -1.66940000
H       -2.24100000       1.36610000      -0.27880000
H       -1.81410000       4.86710000       0.60050000
H       -0.94330000       3.44560000       1.34260000
H       -0.17020000       4.88790000      -1.32340000
H        1.72010000       3.38450000      -1.52130000
H        2.88390000       2.73240000       0.63780000
H        1.38120000       3.19310000       1.58530000
