19
Properties=species:S:1:pos:R:3 gdb_84067=T pbc="F F F"
C       -0.18240000       1.57370000      -0.00150000
C        0.07990000       0.06820000      -0.01920000
C        0.83190000      -0.49240000      -1.25960000
O        1.41700000       0.48720000      -2.11360000
C        1.88230000      -1.40540000      -0.66650000
C        1.95690000      -1.35160000       0.67080000
C        2.88810000      -2.05190000       1.60430000
C        0.91670000      -0.40990000       1.17670000
O        0.75910000      -0.08750000       2.33250000
H        0.74280000       2.14690000      -0.11240000
H       -0.85300000       1.86830000      -0.81240000
H       -0.63340000       1.85030000       0.95480000
H       -0.88370000      -0.45170000       0.06760000
H        0.15100000      -1.04150000      -1.91830000
H        2.13580000       0.90850000      -1.62940000
H        2.53010000      -1.99350000      -1.30970000
H        3.60600000      -2.67920000       1.07080000
H        3.43570000      -1.32510000       2.21390000
H        2.32730000      -2.67740000       2.30760000
