16
Properties=species:S:1:pos:R:3 gdb_47199=T pbc="F F F"
N       -0.01140000       1.11920000       0.67180000
C        0.00110000       0.01350000       0.05890000
O        1.08430000      -0.37870000      -0.66780000
C        1.28560000      -1.72010000      -1.11680000
C        0.06260000      -2.57390000      -1.14550000
C       -1.08760000      -2.18140000      -0.61000000
C       -1.21640000      -0.87600000       0.06120000
C       -2.21960000      -0.67620000       1.12850000
O       -2.46440000      -0.19110000      -0.18200000
H        0.87680000       1.60620000       0.54410000
H        1.71650000      -1.63640000      -2.12220000
H        2.05930000      -2.17790000      -0.48130000
H        0.16660000      -3.54170000      -1.62680000
H       -1.98040000      -2.79690000      -0.64880000
H       -2.83040000      -1.52320000       1.44150000
H       -2.01560000       0.08630000       1.87580000
