21
Properties=species:S:1:pos:R:3 gdb_68203=T pbc="F F F"
C       -0.22560000       1.46870000      -0.01150000
C       -0.03450000      -0.02960000       0.01940000
C        0.90820000      -0.77470000      -0.97790000
C        0.84320000      -1.89590000       0.09630000
C        0.77660000      -0.75070000       1.14360000
C       -0.65640000      -2.32580000       0.02730000
C       -1.30290000      -0.91270000      -0.05100000
C       -0.91770000      -3.23480000      -1.14790000
O       -1.42500000      -2.90360000      -2.19120000
H        0.73260000       1.99590000       0.04530000
H       -0.72610000       1.78270000      -0.93470000
H       -0.84330000       1.80650000       0.82900000
H        0.53140000      -0.99010000      -1.98120000
H        1.89890000      -0.31690000      -1.03340000
H        1.58520000      -2.69310000       0.15390000
H        1.75270000      -0.28950000       1.31630000
H        0.27890000      -0.95010000       2.09840000
H       -0.92450000      -2.87670000       0.93710000
H       -1.98580000      -0.72300000       0.78260000
H       -1.85100000      -0.78180000      -0.98760000
H       -0.56690000      -4.28310000      -1.00030000
