13
Properties=species:S:1:pos:R:3 gdb_45926=T pbc="F F F"
N       -0.07890000       1.27890000       0.16090000
C       -0.00060000       0.01990000       0.04810000
N       -1.14910000      -0.74620000      -0.09100000
C       -1.20100000      -2.11090000      -0.20910000
O       -2.23260000      -2.72920000      -0.32680000
C        0.13560000      -2.83410000      -0.17760000
O        1.33070000      -2.05210000      -0.07250000
C        1.33070000      -0.71690000       0.05160000
O        2.36090000      -0.11230000       0.15820000
H        0.86680000       1.65660000       0.24840000
H       -2.03190000      -0.24750000      -0.10260000
H        0.11790000      -3.52740000       0.66880000
H        0.21310000      -3.42920000      -1.09170000
