27
Properties=species:S:1:pos:R:3 gdb_117980=T pbc="F F F"
C       -0.11170000       1.56040000       0.15410000
C       -0.02360000       0.03570000       0.05270000
C        0.69200000      -0.44050000      -1.21800000
C        0.72650000      -1.97010000      -1.34770000
O       -0.60320000      -2.49650000      -1.36480000
C        1.57460000      -2.53480000      -2.52910000
C        3.03260000      -2.05160000      -2.41790000
C        1.55550000      -4.07280000      -2.43260000
C        0.99390000      -2.10830000      -3.89070000
H        0.88380000       2.01900000       0.15430000
H       -0.66710000       1.98360000      -0.69080000
H       -0.62000000       1.87010000       1.07270000
H        0.50510000      -0.36080000       0.92970000
H       -1.02630000      -0.40310000       0.08170000
H        0.19110000      -0.01120000      -2.09850000
H        1.71320000      -0.04330000      -1.22670000
H        1.15960000      -2.37980000      -0.42480000
H       -1.07630000      -2.06690000      -2.08550000
H        3.44120000      -2.24800000      -1.41990000
H        3.66320000      -2.58080000      -3.14050000
H        3.13410000      -0.98110000      -2.61920000
H        0.53120000      -4.45140000      -2.44240000
H        2.10310000      -4.52050000      -3.26890000
H        2.02860000      -4.41260000      -1.50410000
H        1.00620000      -1.02170000      -4.02260000
H        1.58060000      -2.54260000      -4.70700000
H       -0.03670000      -2.45860000      -4.01850000
