21
Properties=species:S:1:pos:R:3 gdb_109018=T pbc="F F F"
C       -0.29630000       1.48410000      -0.04420000
C        0.14760000       0.01200000       0.02020000
C        0.84940000      -0.46050000      -1.21910000
C        2.10170000      -0.93020000      -1.30500000
C        2.45450000      -1.37450000      -2.68080000
C        1.61480000      -2.52500000      -3.23680000
C        1.20210000      -1.11630000      -3.51160000
O        1.23980000      -0.72340000      -4.84920000
C        0.17490000      -0.46710000      -2.58260000
H        0.56310000       2.14510000      -0.19530000
H       -0.99880000       1.65580000      -0.86610000
H       -0.79390000       1.78110000       0.88400000
H        0.80710000      -0.13390000       0.88340000
H       -0.73930000      -0.61230000       0.20130000
H        2.78220000      -1.01830000      -0.46390000
H        3.45080000      -1.23060000      -3.08430000
H        2.02830000      -3.05370000      -4.08890000
H        1.04390000      -3.13120000      -2.54050000
H        1.47890000       0.20980000      -4.87700000
H       -0.77980000      -1.00840000      -2.57590000
H       -0.05630000       0.55280000      -2.92520000
