18
Properties=species:S:1:pos:R:3 gdb_52818=T pbc="F F F"
C        0.01400000       1.51660000      -0.03230000
C        0.02580000       0.06190000       0.01500000
C        0.03770000      -1.14250000       0.06140000
C        0.05310000      -2.59970000       0.08730000
O        1.03720000      -3.12730000      -0.79020000
C        0.18280000      -3.34200000       1.45160000
N       -1.09690000      -4.10210000       1.24470000
C       -2.15190000      -3.07640000       1.14580000
C       -1.30520000      -3.32150000      -0.03540000
H        0.94940000       1.90640000      -0.44840000
H       -0.80790000       1.88910000      -0.65340000
H       -0.10600000       1.94380000       0.96930000
H        0.97890000      -2.63810000      -1.61820000
H        1.03810000      -4.01820000       1.42970000
H        0.20100000      -2.72840000       2.35640000
H       -3.15350000      -3.49560000       1.14230000
H       -2.04650000      -2.14700000       1.70180000
H       -1.65620000      -3.78900000      -0.95020000
