17
Properties=species:S:1:pos:R:3 gdb_55541=T pbc="F F F"
C       -0.05650000       1.52040000       0.36890000
C        0.18880000       0.06800000      -0.00960000
O        1.27200000      -0.38330000      -0.26960000
N       -0.99660000      -0.69220000      -0.02130000
C       -1.14300000      -2.04580000      -0.32300000
O       -0.23490000      -2.78850000      -0.61480000
C       -2.56640000      -2.52600000      -0.25520000
C       -3.02010000      -3.38600000      -1.39290000
N       -2.75560000      -3.97050000      -0.08420000
H        0.89680000       2.04700000       0.36010000
H       -0.74130000       1.99890000      -0.33970000
H       -0.50240000       1.59440000       1.36670000
H       -1.84510000      -0.19780000       0.21050000
H       -3.28910000      -1.89860000       0.26130000
H       -4.06440000      -3.35500000      -1.68980000
H       -2.30270000      -3.55310000      -2.19090000
H       -1.82420000      -4.38890000      -0.10010000
