19
Properties=species:S:1:pos:R:3 gdb_37873=T pbc="F F F"
C       -0.05510000       1.48520000      -0.01840000
C        1.47500000       1.51610000      -0.03980000
C        1.40490000       0.09620000      -0.63120000
C        2.30700000      -0.44450000       0.46090000
C        1.43520000      -1.49790000       1.15210000
C        0.27260000      -0.52190000       1.38340000
C        1.04330000       0.56840000       2.16670000
N        2.11790000       0.89250000       1.20390000
N       -0.00370000      -0.02050000      -0.01130000
H       -0.63160000       1.95320000       0.78380000
H       -0.45980000       1.82610000      -0.97760000
H        2.03580000       2.36830000      -0.43160000
H        1.45430000      -0.18370000      -1.68570000
H        3.34840000      -0.68150000       0.24450000
H        1.18220000      -2.31400000       0.46930000
H        1.84720000      -1.90910000       2.07650000
H       -0.63020000      -0.92330000       1.84850000
H        0.47670000       1.46140000       2.43230000
H        1.46970000       0.16580000       3.09240000
