14
Properties=species:S:1:pos:R:3 gdb_56725=T pbc="F F F"
O        0.34060000       1.50940000      -0.05750000
C        0.08870000       0.12850000       0.03820000
C        0.50030000      -0.58020000      -1.19330000
N        0.86870000      -1.12140000      -2.14550000
C        0.75380000      -0.50970000       1.26960000
C        1.04600000      -1.97460000       1.31890000
N        2.14210000      -1.01120000       1.21100000
C        0.40520000       0.17710000       2.49770000
N        0.09630000       0.70660000       3.47680000
H        1.29410000       1.65670000      -0.08760000
H       -0.99840000       0.03940000       0.14020000
H        0.97190000      -2.48400000       2.27380000
H        0.77760000      -2.56480000       0.44750000
H        2.48140000      -0.97820000       0.25000000
