17
Properties=species:S:1:pos:R:3 gdb_92693=T pbc="F F F"
C       -0.06820000       1.48150000       0.07860000
C       -0.00840000      -0.02660000      -0.07910000
C        0.87710000      -0.51130000      -1.21690000
N        1.02310000      -1.95840000      -1.24730000
C        0.94970000      -2.55600000      -0.11910000
N        1.00600000      -3.91260000       0.01340000
C        0.83710000      -1.84750000       1.22170000
O        1.11080000      -2.39610000       2.25950000
O        0.48650000      -0.55810000       1.18390000
H        0.93310000       1.89430000       0.23270000
H       -0.49900000       1.93490000      -0.81890000
H       -0.68870000       1.75290000       0.93630000
H       -1.01920000      -0.43280000      -0.21910000
H        0.44170000      -0.18250000      -2.16750000
H        1.86770000      -0.03590000      -1.14810000
H        1.33310000      -4.43180000      -0.78570000
H        1.25420000      -4.25010000       0.93080000
