17
Properties=species:S:1:pos:R:3 gdb_29477=T pbc="F F F"
C       -0.02050000       1.53820000       0.02080000
C       -0.00730000       0.04210000       0.01870000
C       -0.02520000      -0.78960000      -1.05070000
C       -0.00260000      -2.25820000      -0.64510000
C        0.03170000      -2.14460000       0.84980000
C        0.02810000      -0.81780000       1.19540000
N        0.06050000      -0.79610000       2.56740000
C        0.08130000      -2.11610000       2.96630000
N        0.06480000      -2.95660000       1.94790000
H        0.86920000       1.94620000       0.51670000
H       -0.04830000       1.93310000      -0.99780000
H       -0.89250000       1.93060000       0.55880000
H       -0.05250000      -0.46720000      -2.08400000
H       -0.88550000      -2.79310000      -1.01870000
H        0.87110000      -2.77750000      -1.06010000
H        0.06800000       0.00360000       3.17730000
H        0.10820000      -2.39020000       4.01030000
