20
Properties=species:S:1:pos:R:3 gdb_74336=T pbc="F F F"
C       -0.08190000       1.44550000      -0.13740000
C       -0.09650000      -0.03970000      -0.01150000
N       -1.07090000      -0.81110000      -0.27880000
C       -0.61170000      -2.18850000      -0.03210000
C        0.82100000      -2.00490000       0.54480000
O        1.07090000      -0.58700000       0.42600000
C       -1.53870000      -2.96960000       0.88260000
C       -2.25220000      -2.29850000       2.02860000
C       -3.02950000      -2.77790000       0.82530000
H        0.69720000       1.75640000      -0.84050000
H       -1.05210000       1.79470000      -0.48850000
H        0.15050000       1.90560000       0.82800000
H       -0.57160000      -2.70790000      -0.99940000
H        0.88280000      -2.27790000       1.60350000
H        1.59670000      -2.53750000      -0.01060000
H       -1.19370000      -3.98540000       1.06250000
H       -2.35090000      -2.84010000       2.96290000
H       -2.12910000      -1.22670000       2.13570000
H       -3.40130000      -2.01790000       0.14840000
H       -3.66430000      -3.65060000       0.93150000
