22
Properties=species:S:1:pos:R:3 gdb_103339=T pbc="F F F"
C        0.74580000      -0.42500000      -1.42140000
C        0.01800000       0.02740000      -0.14920000
C        0.60230000      -0.60000000       1.10630000
O        1.89990000      -0.10900000       1.24760000
C       -0.23340000      -0.72090000       2.43980000
C       -1.07010000      -1.85320000       1.79230000
C        0.41240000      -2.13260000       1.44210000
N        0.83110000      -1.73400000       2.85570000
C        0.57410000      -2.63840000       3.96830000
H        0.61670000      -1.49970000      -1.59130000
H        0.35790000       0.09920000      -2.30000000
H        1.81620000      -0.22250000      -1.34240000
H        0.12180000       1.11280000      -0.03660000
H       -1.05090000      -0.17690000      -0.23830000
H        2.21700000      -0.55120000       2.05440000
H       -0.55320000       0.07340000       3.11820000
H       -1.53860000      -2.55380000       2.48140000
H       -1.76140000      -1.60310000       0.98750000
H        0.85250000      -3.00180000       0.94830000
H        1.32220000      -3.43780000       3.94440000
H        0.71080000      -2.08440000       4.90300000
H       -0.41990000      -3.10810000       3.99840000
