19
Properties=species:S:1:pos:R:3 gdb_73839=T pbc="F F F"
C        0.07490000       1.49300000       0.12870000
C       -0.07420000       0.00980000       0.00440000
C       -0.13360000      -0.74430000      -1.11230000
C       -0.05480000      -0.33730000      -2.54900000
C       -0.02780000      -2.18830000      -0.68160000
O        1.37690000      -2.35140000      -0.18700000
C        0.90310000      -2.12840000       1.12040000
C       -0.53770000      -2.25460000       0.78500000
C       -0.05700000      -0.88430000       1.19710000
H        1.04890000       1.75450000       0.56210000
H       -0.00510000       1.99750000      -0.83730000
H       -0.68790000       1.91580000       0.79450000
H       -0.10330000       0.74780000      -2.67210000
H        0.88120000      -0.68100000      -3.00810000
H       -0.87260000      -0.77640000      -3.13480000
H       -0.26880000      -2.97200000      -1.39940000
H        1.52250000      -2.44890000       1.94950000
H       -1.36340000      -2.81650000       1.20210000
H       -0.27450000      -0.51290000       2.19250000
