18
Properties=species:S:1:pos:R:3 gdb_20191=T pbc="F F F"
C       -0.05890000       1.52550000      -0.10590000
C        1.34280000       2.15620000       0.02840000
C        2.22630000       1.50980000       1.08450000
C        1.78190000       0.93860000       2.40990000
O        0.42850000       0.48580000       2.40360000
C        0.73040000      -0.40680000       1.27910000
C       -0.05060000      -0.00660000       0.03180000
C        2.20820000       0.01230000       1.30130000
H       -0.70680000       1.92550000       0.67770000
H       -0.49830000       1.81510000      -1.06620000
H        1.87300000       2.07210000      -0.93040000
H        1.24040000       3.23000000       0.22630000
H        3.22990000       1.92750000       1.14760000
H        2.22220000       1.18580000       3.36960000
H        0.56020000      -1.44580000       1.57740000
H       -1.08010000      -0.37770000       0.08750000
H        0.41740000      -0.48850000      -0.83700000
H        3.06010000      -0.64630000       1.19670000
