16
Properties=species:S:1:pos:R:3 gdb_19883=T pbc="F F F"
O        0.05660000       1.40570000      -0.14820000
C       -0.03520000       0.03100000      -0.00390000
C       -0.41030000      -0.68080000       1.26910000
C       -1.15490000       0.07890000       2.37490000
C       -2.51950000       0.44370000       1.80350000
O       -2.48690000       1.36920000       0.69990000
C       -2.61080000      -0.05200000       0.42030000
C       -1.33510000      -0.75720000       0.03890000
H       -0.79750000       1.77380000       0.12630000
H        0.76050000      -0.45170000      -0.56580000
H        0.19060000      -1.53300000       1.56980000
H       -1.29350000      -0.56730000       3.24760000
H       -0.61370000       0.97120000       2.71040000
H       -3.37690000       0.57050000       2.45960000
H       -3.54720000      -0.32830000      -0.05420000
H       -1.43440000      -1.65390000      -0.56220000
