19
Properties=species:S:1:pos:R:3 gdb_102359=T pbc="F F F"
C       -0.11240000       1.45260000       0.17510000
C       -0.12990000      -0.04550000      -0.13130000
C        0.74230000      -0.43230000      -1.34000000
O        2.11550000      -0.05170000      -1.21960000
C        2.79770000      -0.57040000      -0.08800000
C        0.70120000      -1.96040000      -1.60600000
O       -0.03270000      -2.73610000      -1.05880000
C        0.25210000       0.18160000      -2.57660000
C       -0.18390000       0.61280000      -3.61020000
H        0.90070000       1.80660000       0.38590000
H       -0.49420000       2.02980000      -0.67190000
H       -0.73770000       1.67170000       1.04520000
H        0.20430000      -0.62620000       0.73430000
H       -1.14680000      -0.38830000      -0.34200000
H        2.47390000      -0.09600000       0.84690000
H        2.67820000      -1.65810000       0.01540000
H        3.85550000      -0.34950000      -0.24560000
H        1.44710000      -2.27130000      -2.36920000
H       -0.56260000       1.01630000      -4.51720000
