18
Properties=species:S:1:pos:R:3 gdb_6606=T pbc="F F F"
C        0.00300000       1.34160000       0.00170000
O        0.04700000      -0.07070000      -0.07310000
C        0.67300000      -0.55630000      -1.19410000
C        2.16310000      -0.36240000      -1.64240000
C        1.50470000      -1.31700000      -2.66440000
O        2.19460000      -1.85020000      -3.73300000
C        0.83880000      -2.06770000      -1.46470000
C        0.26210000      -0.37060000      -2.69370000
H        1.01170000       1.77740000       0.02230000
H       -0.54880000       1.77470000      -0.84430000
H       -0.51280000       1.59480000       0.93030000
H        2.45100000       0.62230000      -2.01870000
H        2.92800000      -0.79640000      -0.99370000
H        1.59330000      -2.41090000      -4.23480000
H        1.50870000      -2.61250000      -0.79510000
H       -0.07830000      -2.62520000      -1.67540000
H       -0.69160000      -0.81480000      -2.99350000
H        0.41640000       0.61490000      -3.14020000
