18
Properties=species:S:1:pos:R:3 gdb_13764=T pbc="F F F"
C        0.00070000       1.37930000      -0.31290000
C        0.07560000      -0.04250000       0.26170000
C        0.68520000      -0.06240000       1.67070000
C       -1.30300000      -0.66440000       0.28400000
O       -1.87260000      -1.05840000      -0.96190000
C       -1.56110000      -2.09270000      -0.01070000
C       -0.51050000      -3.01630000      -0.34720000
C        0.34700000      -3.81940000      -0.60270000
H        0.99860000       1.82390000      -0.38010000
H       -0.43960000       1.37180000      -1.31400000
H       -0.61160000       2.03000000       0.32280000
H        0.69790000      -0.65490000      -0.40020000
H        0.06850000       0.50660000       2.37660000
H        0.77770000      -1.08470000       2.05010000
H        1.68220000       0.38850000       1.66620000
H       -2.01510000      -0.17920000       0.95810000
H       -2.44060000      -2.55170000       0.44070000
H        1.10590000      -4.52430000      -0.83800000
