16
Properties=species:S:1:pos:R:3 gdb_62503=T pbc="F F F"
C       -0.07710000       1.55690000      -0.00310000
C        0.00930000       0.04790000       0.00580000
N       -1.18950000      -0.57930000      -0.46890000
C        1.37710000      -0.61580000      -0.24840000
C        2.56060000       0.15590000      -0.48450000
N        3.50520000       0.78710000      -0.70400000
C        0.71560000      -0.65320000       1.14500000
C        1.26960000       0.08310000       2.24560000
N        1.70100000       0.67490000       3.14040000
H        0.82850000       2.02040000       0.39030000
H       -0.22180000       1.91710000      -1.02720000
H       -0.93050000       1.87750000       0.59960000
H       -1.40170000      -0.27350000      -1.41390000
H       -1.12060000      -1.59140000      -0.48180000
H        1.35460000      -1.56410000      -0.77580000
H        0.32280000      -1.62520000       1.42840000
