22
Properties=species:S:1:pos:R:3 gdb_89819=T pbc="F F F"
C        0.03640000       1.59190000      -0.03710000
C        0.03820000       0.06030000       0.03350000
C        0.71000000      -0.61410000      -1.19250000
C        1.46450000      -1.81870000      -0.62430000
C        1.33160000      -3.19130000      -1.19170000
N        2.59460000      -2.44350000      -1.33530000
C        1.57570000      -1.54830000       0.83200000
C        0.80460000      -0.52730000       1.21490000
C        0.61640000      -0.01850000       2.60990000
H        1.05950000       1.98240000      -0.07780000
H       -0.49130000       1.93880000      -0.93180000
H       -0.46030000       2.03610000       0.83140000
H       -1.00970000      -0.27040000       0.10710000
H       -0.00280000      -0.88130000      -1.97800000
H        1.43480000       0.08490000      -1.63020000
H        1.38850000      -4.06160000      -0.54260000
H        0.69370000      -3.31980000      -2.06340000
H        2.65910000      -2.05760000      -2.27510000
H        2.19500000      -2.15570000       1.48290000
H        1.19900000      -0.60010000       3.32920000
H        0.91700000       1.03240000       2.70260000
H       -0.43900000      -0.06640000       2.90990000
