21
Properties=species:S:1:pos:R:3 gdb_96180=T pbc="F F F"
C       -0.03960000       1.57150000      -0.07510000
C        0.01840000       0.04160000      -0.02160000
C        0.64430000      -0.55850000      -1.28640000
O        0.72140000      -1.96960000      -1.19870000
C        1.69210000      -2.37950000      -0.25240000
C        1.38450000      -1.88420000       1.17550000
O        2.57660000      -1.38140000       1.82920000
C        2.15500000      -0.01590000       1.62000000
C        0.73130000      -0.47830000       1.23030000
H        0.96390000       2.00880000      -0.12580000
H       -0.59460000       1.91470000      -0.95470000
H       -0.53590000       1.97930000       0.81150000
H       -1.00970000      -0.34280000       0.01470000
H        0.02550000      -0.33370000      -2.16080000
H        1.64750000      -0.13350000      -1.46750000
H        1.72040000      -3.47150000      -0.29670000
H        2.68820000      -1.99980000      -0.53180000
H        0.90540000      -2.66470000       1.77510000
H        2.25250000       0.58880000       2.52760000
H        2.72470000       0.46600000       0.81260000
H        0.06710000      -0.39580000       2.09490000
