20
Properties=species:S:1:pos:R:3 gdb_93901=T pbc="F F F"
C       -0.02180000       1.50990000      -0.03930000
C        0.03240000      -0.01090000       0.00660000
O        0.61960000      -0.44880000      -1.20840000
C        0.79100000      -1.85450000      -1.26720000
C        1.89530000      -2.33150000      -0.31640000
O        3.18260000      -2.02820000      -0.81360000
C        1.69100000      -1.70930000       1.06940000
N        2.25680000      -0.35020000       1.17930000
C        0.79870000      -0.52810000       1.21400000
H        0.99320000       1.91500000      -0.06270000
H       -0.55330000       1.84060000      -0.93520000
H       -0.53980000       1.90500000       0.84020000
H       -0.99340000      -0.41870000       0.07650000
H       -0.15750000      -2.36880000      -1.03230000
H        1.07370000      -2.09050000      -2.29630000
H        1.83730000      -3.42360000      -0.23830000
H        3.32440000      -1.09930000      -0.57930000
H        1.81160000      -2.36940000       1.92370000
H        2.62820000      -0.18940000       2.11030000
H        0.29140000      -0.38630000       2.16690000
