16
Properties=species:S:1:pos:R:3 gdb_108734=T pbc="F F F"
O        0.00640000       1.40050000       0.02650000
C       -0.01850000      -0.00970000       0.00620000
C       -1.43100000      -0.48560000       0.01740000
C       -2.55570000       0.24440000       0.05320000
C       -3.73310000      -0.65550000       0.03330000
O       -4.89950000      -0.37510000      -0.03820000
N       -3.24240000      -2.02930000       0.09740000
C       -2.57890000      -2.45070000      -1.14960000
C       -1.78450000      -1.93550000       0.00920000
H        0.92350000       1.68860000       0.04540000
H        0.48590000      -0.41870000      -0.88740000
H        0.50470000      -0.44340000       0.87700000
H       -2.63370000       1.32090000       0.02410000
H       -2.61040000      -3.51800000      -1.35040000
H       -2.67760000      -1.80610000      -2.01970000
H       -1.20950000      -2.63170000       0.61440000
