12
Properties=species:S:1:pos:R:3 gdb_23711=T pbc="F F F"
N       -0.01620000       1.40810000       0.15090000
C        0.00200000       0.02040000       0.04460000
C       -1.16760000      -0.74880000       0.02760000
N       -1.15690000      -2.08000000      -0.01110000
C        0.03770000      -2.63990000      -0.03230000
F        0.05540000      -3.96310000      -0.06910000
N        1.21680000      -2.04770000      -0.02560000
C        1.19180000      -0.71680000       0.01320000
H        0.80870000       1.87260000      -0.20080000
H       -0.85780000       1.85000000      -0.19040000
H       -2.14510000      -0.26950000       0.04530000
H        2.15610000      -0.21100000       0.01900000
