18
Properties=species:S:1:pos:R:3 gdb_124948=T pbc="F F F"
C        0.20980000       1.47490000       0.04380000
C        0.09440000      -0.01070000      -0.05620000
C       -0.02020000      -0.85700000      -1.15070000
C       -0.12860000      -2.15170000      -0.58320000
N       -0.07400000      -2.12800000       0.74260000
N        0.05650000      -0.81770000       1.03550000
C       -0.06310000      -0.49820000      -2.58940000
C        1.07520000       0.20800000      -3.24040000
N        0.80670000      -1.20430000      -3.55390000
H        0.98740000       1.77450000       0.75510000
H        0.46350000       1.89490000      -0.93140000
H       -0.73050000       1.93600000       0.36870000
H       -0.23780000      -3.09440000      -1.10040000
H        0.12740000      -0.54130000       2.00070000
H       -1.05450000      -0.31240000      -3.00020000
H        0.89030000       0.90100000      -4.05640000
H        1.93920000       0.44620000      -2.62600000
H        1.46060000      -1.78670000      -3.03490000
