20
Properties=species:S:1:pos:R:3 gdb_86051=T pbc="F F F"
C       -0.01630000       1.48770000       0.12040000
N        0.09090000       0.05340000       0.01160000
C        1.11700000      -0.51730000      -0.87770000
C        1.38890000      -1.62340000       0.16890000
O        0.70440000      -2.79990000      -0.19460000
C        2.84890000      -1.92530000       0.50560000
C        3.01960000      -2.90360000       1.64280000
O        2.11840000      -3.52960000       2.15160000
C        0.60320000      -0.71070000       1.16190000
H        0.93620000       1.97930000       0.40440000
H       -0.34130000       1.91100000      -0.83610000
H       -0.76750000       1.74890000       0.87340000
H        0.74980000      -0.86670000      -1.84800000
H        1.98900000       0.14140000      -1.03030000
H        0.72720000      -3.37180000       0.58520000
H        3.35450000      -2.36310000      -0.36910000
H        3.41380000      -1.01640000       0.75090000
H        4.06390000      -3.03430000       2.00220000
H        1.26940000      -0.12580000       1.81940000
H       -0.16250000      -1.20110000       1.77150000
