19
Properties=species:S:1:pos:R:3 gdb_111992=T pbc="F F F"
C        0.02190000       1.37980000       0.10720000
O       -0.16460000      -0.00580000      -0.06720000
C        0.58830000      -0.55900000      -1.12770000
C        2.06640000      -0.78850000      -0.82170000
C        2.42800000      -2.05200000      -1.04050000
C        1.24450000      -2.88070000      -1.46320000
C        1.39290000      -4.11450000      -2.30580000
O        0.24580000      -2.92240000      -0.41290000
C        0.09440000      -1.96460000      -1.46290000
H        1.04920000       1.63320000       0.40890000
H       -0.21480000       1.94120000      -0.81100000
H       -0.65950000       1.69720000       0.90010000
H        0.48110000       0.07990000      -2.02350000
H        2.70940000      -0.00380000      -0.44090000
H        3.41960000      -2.46840000      -0.90230000
H        1.98580000      -4.87120000      -1.78010000
H        0.41450000      -4.54550000      -2.53070000
H        1.90300000      -3.88390000      -3.24720000
H       -0.78070000      -2.09390000      -2.09400000
