25
Properties=species:S:1:pos:R:3 gdb_59534=T pbc="F F F"
C       -0.19140000       1.68410000       0.00980000
C       -0.01220000       0.15990000       0.05550000
C        0.63010000      -0.28080000       1.37810000
C       -1.35680000      -0.54570000      -0.15260000
C       -2.13010000      -0.45220000      -1.51370000
C       -2.30980000      -1.97800000      -1.49950000
C       -0.99140000      -2.69860000      -1.52030000
C        0.21240000      -2.32810000      -2.36360000
C       -1.45570000      -2.07990000      -0.22290000
H        0.76760000       2.20020000       0.12480000
H       -0.63480000       2.00900000      -0.93710000
H       -0.84970000       2.02390000       0.81890000
H        0.66790000      -0.12310000      -0.75670000
H       -0.00600000      -0.01310000       2.23090000
H        0.78470000      -1.36420000       1.40430000
H        1.60200000       0.20140000       1.52700000
H       -2.03370000      -0.20320000       0.64100000
H       -3.07010000       0.09680000      -1.43000000
H       -1.57590000      -0.04430000      -2.36610000
H       -3.24070000      -2.48360000      -1.72820000
H       -1.14130000      -3.77730000      -1.48140000
H        0.28020000      -1.25630000      -2.55930000
H        1.14660000      -2.63770000      -1.88200000
H        0.15950000      -2.83140000      -3.33590000
H       -1.62770000      -2.70910000       0.64400000
