23
Properties=species:S:1:pos:R:3 gdb_41734=T pbc="F F F"
C        0.34040000       1.44990000      -0.43250000
C        1.47030000       1.95750000       0.49700000
C        2.07160000       0.70170000       1.11700000
C        2.43120000      -0.42830000       0.18330000
C        3.25640000      -1.57420000       0.75660000
C        2.54020000      -1.97190000       2.07090000
C        1.05380000      -1.61250000       1.84680000
C        1.08680000      -0.43440000       0.89290000
C       -0.14130000       0.12530000       0.20170000
H       -0.46470000       2.18030000      -0.54840000
H        0.73640000       1.25800000      -1.43500000
H        2.20230000       2.57050000      -0.04110000
H        1.05400000       2.58420000       1.29510000
H        2.61950000       0.80830000       2.04900000
H        2.51560000      -0.22480000      -0.88050000
H        3.24380000      -2.41130000       0.04790000
H        4.30760000      -1.31280000       0.92310000
H        2.68680000      -3.02520000       2.32410000
H        2.94000000      -1.38980000       2.90750000
H        0.52170000      -2.44850000       1.37300000
H        0.53190000      -1.39460000       2.78630000
H       -0.92280000       0.31710000       0.94930000
H       -0.57090000      -0.55920000      -0.53940000
