14
Properties=species:S:1:pos:R:3 gdb_132916=T pbc="F F F"
N        0.01280000       1.45990000       0.15590000
C       -0.03590000       0.06030000       0.04470000
C       -1.17850000      -0.68240000       0.03140000
N       -1.13090000      -2.05150000      -0.00330000
C        0.03020000      -2.83900000      -0.02780000
O       -0.04330000      -4.05790000      -0.05760000
C        1.24140000      -2.04080000      -0.01900000
C        1.18290000      -0.68790000       0.01520000
F        2.30750000       0.03840000       0.00930000
H        0.87790000       1.83970000      -0.20410000
H       -0.77750000       1.92700000      -0.26740000
H       -2.16460000      -0.23590000       0.05280000
H       -1.99030000      -2.58160000      -0.01350000
H        2.19130000      -2.55700000      -0.04590000
