16
Properties=species:S:1:pos:R:3 gdb_53822=T pbc="F F F"
O       -0.22040000       0.14670000      -0.58240000
C       -0.74150000       1.22520000      -0.63220000
O       -0.98660000       1.85200000      -1.78090000
C       -1.15110000       1.92480000       0.72280000
O       -0.91500000       1.33090000       1.74170000
C       -1.82000000       3.29580000       0.78270000
C       -1.14900000       4.42490000      -0.05600000
N       -2.14140000       4.16060000      -1.12940000
H       -2.49920000       4.95280000      -1.65160000
H       -1.42650000       2.74740000      -1.68410000
C       -3.04830000       3.50250000      -0.15390000
H       -1.98000000       3.51330000       1.83700000
H       -1.26610000       5.40070000       0.42840000
H       -0.10760000       4.29440000      -0.36340000
H       -3.56070000       2.61750000      -0.54150000
H       -3.78180000       4.17900000       0.29880000
