18
Properties=species:S:1:pos:R:3 gdb_26664=T pbc="F F F"
C       -0.04200000       1.51940000       0.11700000
C       -0.00230000       0.03570000      -0.03600000
C       -0.01420000      -0.77400000      -1.15200000
C       -0.08840000      -0.37160000      -2.59240000
C        0.06730000      -2.12740000      -0.68350000
O        0.00970000      -3.30090000      -1.41430000
C        0.11600000      -2.09630000       0.68450000
O        0.17100000      -3.08880000       1.60770000
N        0.07350000      -0.79050000       1.08010000
H        0.88850000       1.92540000       0.53710000
H       -0.19250000       1.99630000      -0.85410000
H       -0.86160000       1.84660000       0.77050000
H        0.85980000      -0.53700000      -3.12190000
H       -0.85280000      -0.94980000      -3.12420000
H       -0.33650000       0.68740000      -2.70430000
H        0.78940000      -3.35390000      -1.97750000
H        0.13720000      -3.91710000       1.11390000
H        0.07160000      -0.48930000       2.03870000
