23
Properties=species:S:1:pos:R:3 gdb_101698=T pbc="F F F"
C        0.17320000       1.43010000       0.28430000
C        0.02580000      -0.06540000      -0.00500000
C       -1.43360000      -0.54020000       0.00480000
O       -2.22660000       0.21410000      -0.91510000
C       -1.54570000      -2.05540000      -0.23880000
C       -2.91560000      -2.63840000       0.07710000
C       -4.06010000      -2.30020000      -0.85440000
C       -2.98910000      -3.86810000       0.88300000
O       -3.24130000      -2.59330000       1.47860000
H        1.21950000       1.74410000       0.22340000
H       -0.40810000       2.02090000      -0.42810000
H       -0.19170000       1.67200000       1.28840000
H        0.46700000      -0.30410000      -0.98490000
H        0.59130000      -0.64860000       0.73200000
H       -1.87340000      -0.32130000       0.98510000
H       -1.86460000       0.06980000      -1.79710000
H       -1.27870000      -2.27650000      -1.28250000
H       -0.80230000      -2.55770000       0.38970000
H       -3.86080000      -2.68780000      -1.86030000
H       -4.98910000      -2.74630000      -0.49050000
H       -4.18520000      -1.21840000      -0.92990000
H       -3.85730000      -4.52060000       0.79310000
H       -2.07410000      -4.36400000       1.20670000
