18
Properties=species:S:1:pos:R:3 gdb_38682=T pbc="F F F"
C        0.04060000       1.52230000      -0.02800000
C        1.28510000       0.71550000      -0.01280000
C        2.12240000       0.63990000       1.26010000
O        1.23630000       0.73550000       2.37570000
C        0.61300000      -0.55570000       2.39760000
C       -0.47780000      -0.55390000       1.30200000
N       -0.03670000       0.05850000       0.02960000
C        1.75950000      -1.48980000       2.04070000
C        2.66850000      -0.78150000       1.38090000
H       -0.19360000       2.07880000       0.87570000
H       -0.31110000       1.96670000      -0.95620000
H        1.83550000       0.55140000      -0.93870000
H        2.86430000       1.44130000       1.32550000
H        0.18190000      -0.72180000       3.38910000
H       -0.79460000      -1.58270000       1.09220000
H       -1.35680000      -0.01050000       1.66500000
H        1.75820000      -2.55310000       2.24040000
H        3.58000000      -1.12980000       0.91390000
