18
Properties=species:S:1:pos:R:3 gdb_1085=T pbc="F F F"
C       -0.04400000       1.55200000       0.04740000
C        0.00090000       0.01480000       0.03450000
C        0.72250000      -0.50320000       1.28990000
C       -1.42900000      -0.54940000      -0.01660000
C        0.74260000      -0.48040000      -1.24210000
C        2.12700000      -0.02160000      -1.33760000
N        3.22040000       0.34830000      -1.39900000
H        0.96290000       1.98000000       0.06000000
H       -0.56620000       1.94150000      -0.83350000
H       -0.57400000       1.91110000       0.93520000
H        0.20260000      -0.17050000       2.19380000
H        0.75380000      -1.59820000       1.30670000
H        1.75170000      -0.13490000       1.33830000
H       -1.96510000      -0.19990000      -0.90590000
H       -1.42620000      -1.64480000      -0.03250000
H       -1.99830000      -0.23060000       0.86210000
H        0.74300000      -1.57650000      -1.26970000
H        0.20780000      -0.14150000      -2.13730000
