15
Properties=species:S:1:pos:R:3 gdb_75959=T pbc="F F F"
C       -0.89290000       0.88970000      -0.00160000
C        0.20580000      -0.16720000       0.00380000
C        1.09630000      -0.10550000      -1.23690000
O        0.87690000       0.54800000      -2.21180000
O        2.22490000      -0.86920000      -1.15340000
C        2.36790000      -1.64650000       0.01860000
O        2.19770000      -0.88540000       1.19760000
C        1.06730000      -0.12280000       1.26550000
O        0.82530000       0.51710000       2.24400000
H       -0.45910000       1.89170000       0.01030000
H       -1.50220000       0.79210000      -0.90130000
H       -1.52290000       0.77980000       0.88220000
H       -0.24460000      -1.17420000      -0.00840000
H        1.66260000      -2.48820000       0.00460000
H        3.39320000      -2.01250000       0.02800000
