16
Properties=species:S:1:pos:R:3 gdb_44379=T pbc="F F F"
O        0.02650000       0.04850000      -0.69870000
C       -0.03310000       1.09530000      -0.11860000
C       -1.34480000       1.84750000       0.13630000
N       -1.28900000       2.86890000       1.17410000
C       -0.70810000       2.41490000       2.48510000
C        0.51900000       3.28800000       2.25700000
C        1.09260000       2.97280000       0.90080000
O        1.10780000       1.66010000       0.36640000
C       -0.15190000       3.77880000       0.96560000
H       -1.65020000       2.31560000      -0.80710000
H       -2.10230000       1.09520000       0.37310000
H       -1.33750000       2.73930000       3.31730000
H       -0.52840000       1.33630000       2.56830000
H        1.06850000       3.84320000       3.00550000
H        2.01490000       3.48390000       0.64740000
H       -0.28810000       4.76560000       0.53680000
