14
Properties=species:S:1:pos:R:3 gdb_56477=T pbc="F F F"
N       -0.24790000       1.40300000       0.01390000
C       -0.04480000      -0.03410000       0.05200000
C        0.69920000      -0.58820000      -1.10340000
N        1.27380000      -0.96320000      -2.03360000
C        0.73180000      -0.38930000       1.32830000
O        1.42690000       0.37960000       1.92730000
O        0.51830000      -1.68860000       1.64980000
C        1.20940000      -2.21630000       2.72720000
N        0.95380000      -3.40060000       3.04860000
H        0.63070000       1.87170000       0.21440000
H       -0.56240000       1.69340000      -0.90530000
H       -1.00980000      -0.55110000       0.09700000
H        1.90970000      -1.50710000       3.16720000
H        1.52620000      -3.67960000       3.84420000
