16
Properties=species:S:1:pos:R:3 gdb_54549=T pbc="F F F"
O       -0.25650000      -0.03930000       0.46470000
C       -0.06950000       1.21880000       0.02910000
O        1.00040000       1.64490000      -0.31240000
C       -1.33340000       2.03980000       0.04910000
C       -1.60610000       3.22610000      -0.91040000
C       -2.56810000       3.72580000       0.16660000
C       -3.17270000       2.45450000       0.82020000
N       -2.61640000       1.26920000       0.15880000
H       -3.03190000       1.06560000      -0.75330000
H       -1.21010000      -0.11790000       0.66540000
C       -1.83420000       2.95650000       1.24560000
H       -0.72360000       3.86250000      -0.99170000
H       -1.98700000       2.97790000      -1.90810000
H       -3.04510000       4.69340000       0.25190000
H       -4.11420000       2.44690000       1.35390000
H       -1.40380000       3.22100000       2.19930000
