16
Properties=species:S:1:pos:R:3 gdb_26600=T pbc="F F F"
C       -0.01670000       1.53490000       0.02660000
C        0.00200000       0.03600000      -0.00670000
C       -0.01760000      -0.69510000      -1.15840000
O       -0.05620000      -0.08560000      -2.36230000
N       -0.00160000      -2.07220000      -1.23350000
C        0.03510000      -2.69760000      -0.10480000
N        0.05770000      -2.08260000       1.09910000
C        0.04340000      -0.67340000       1.25670000
N        0.06440000      -0.07760000       2.39350000
H        0.86680000       1.91840000       0.54820000
H       -0.04760000       1.94950000      -0.98120000
H       -0.88250000       1.89560000       0.59240000
H       -0.06380000      -0.79420000      -3.01890000
H        0.04970000      -3.78430000      -0.08780000
H        0.08630000      -2.64470000       1.93720000
H        0.09270000      -0.73610000       3.17220000
