14
Properties=species:S:1:pos:R:3 gdb_131571=T pbc="F F F"
O        0.02090000       1.43260000       0.00960000
C        0.00140000       0.01100000       0.00260000
C       -1.37860000      -0.45630000       0.01260000
C       -2.50950000      -0.87150000       0.02060000
C       -3.83940000      -1.34820000       0.03010000
C       -5.01740000      -0.62740000       0.04100000
N       -5.97810000      -1.57530000       0.04650000
N       -5.45170000      -2.81680000       0.03980000
N       -4.16200000      -2.68760000       0.03000000
H        0.94380000       1.70600000       0.00270000
H        0.50890000      -0.39320000      -0.88890000
H        0.52470000      -0.40220000       0.88070000
H       -5.22360000       0.42870000       0.04480000
H       -6.97950000      -1.46350000       0.05470000
