16
Properties=species:S:1:pos:R:3 gdb_85488=T pbc="F F F"
N       -0.56500000       0.28220000       0.25590000
H       -0.93210000      -0.46650000       0.90680000
H        0.38640000       0.03930000      -0.02910000
H       -1.16810000       0.39340000      -0.55730000
C       -0.59080000       1.47820000       1.20070000
C       -2.03620000       1.71230000       1.58290000
C       -2.29780000       0.46300000       2.53250000
O       -3.42980000       0.09310000       2.78280000
N       -1.11200000      -0.09530000       2.89790000
C       -0.06950000       0.84460000       2.53780000
C        1.23220000       0.19760000       2.30980000
N        2.23070000      -0.29480000       1.99520000
H       -0.01010000       2.28930000       0.75920000
H       -2.12850000       2.65220000       2.13620000
H       -2.74410000       1.74150000       0.74990000
H        0.08450000       1.66570000       3.25880000
