21
Properties=species:S:1:pos:R:3 gdb_89576=T pbc="F F F"
O        1.10550000       0.33460000      -0.62510000
C        0.13730000      -0.35850000       0.12000000
C       -0.01770000      -0.09260000       1.63860000
C       -1.56470000      -0.29810000       1.47230000
C       -1.36720000      -0.02850000      -0.05210000
C       -2.08110000      -1.71910000       1.83010000
C       -2.87400000      -1.56280000       3.15330000
C       -3.16940000      -0.08220000       3.19450000
C       -2.46680000       0.58910000       2.28370000
H        0.97140000       1.27730000      -0.48030000
H        0.32790000      -1.41830000      -0.07350000
H        0.51370000      -0.73650000       2.34450000
H        0.21620000       0.95290000       1.87260000
H       -1.50370000       1.03490000      -0.28460000
H       -1.95530000      -0.61970000      -0.75950000
H       -2.76110000      -2.05910000       1.04150000
H       -1.27730000      -2.45730000       1.90260000
H       -3.77830000      -2.18150000       3.17260000
H       -2.28110000      -1.86310000       4.02870000
H       -3.84710000       0.36140000       3.91590000
H       -2.48070000       1.66600000       2.14560000
