18
Properties=species:S:1:pos:R:3 gdb_30278=T pbc="F F F"
C       -0.02090000       1.59020000      -0.09680000
C       -0.00750000       0.06550000       0.06280000
C        0.80240000      -0.64180000      -1.08540000
O        1.62190000      -1.70780000      -0.50900000
C        1.57830000      -1.44320000       0.81690000
C        0.72980000      -0.47720000       1.26020000
C        0.85130000      -0.45790000       2.68240000
C        1.78230000      -1.41610000       3.01900000
N        2.23160000      -2.03240000       1.84760000
H        0.99780000       1.99110000      -0.07830000
H       -0.49240000       1.88860000      -1.04030000
H       -0.58210000       2.05970000       0.71700000
H       -1.04930000      -0.28710000       0.04550000
H        0.17060000      -1.09860000      -1.84960000
H        1.48410000       0.07120000      -1.56440000
H        0.33400000       0.17670000       3.38600000
H        2.18180000      -1.71150000       3.97480000
H        2.92190000      -2.75920000       1.78620000
