16
Properties=species:S:1:pos:R:3 gdb_52208=T pbc="F F F"
O       -0.41220000       0.96140000      -0.80530000
C       -0.02320000       1.47000000       0.22450000
N        1.25660000       1.42960000       0.68490000
C        2.33840000       0.78550000      -0.04020000
C        3.36820000       1.79570000      -0.48490000
O        4.17910000       2.36160000       0.54740000
C        4.82240000       1.52790000      -0.43320000
C        5.36880000       0.27330000       0.01110000
C        5.85780000      -0.76940000       0.35530000
H       -0.68800000       2.02640000       0.91380000
H        1.48240000       1.91820000       1.53720000
H        2.81580000       0.02300000       0.58260000
H        1.88580000       0.29750000      -0.90710000
H        3.02170000       2.52030000      -1.22310000
H        5.45400000       2.07890000      -1.12930000
H        6.28590000      -1.69130000       0.66440000
