17
Properties=species:S:1:pos:R:3 gdb_71418=T pbc="F F F"
C        0.01830000       1.48860000       0.04020000
C       -0.05260000      -0.00470000       0.05880000
C       -1.27140000      -0.90280000      -0.17210000
C       -0.36380000      -2.07090000       0.28820000
C        0.56930000      -0.99910000       0.96760000
N        1.19450000      -0.75370000      -0.37120000
C        0.69360000      -2.09370000      -0.84130000
C        1.72520000      -3.11380000      -0.68380000
N        2.51520000      -3.94770000      -0.55910000
H        1.00920000       1.82990000       0.35010000
H       -0.17160000       1.87480000      -0.96710000
H       -0.72730000       1.92040000       0.71590000
H       -2.05040000      -0.68400000       0.56280000
H       -1.71310000      -0.96210000      -1.17330000
H       -0.76730000      -2.98420000       0.71810000
H        1.10200000      -0.93540000       1.90680000
H        0.32490000      -2.11060000      -1.87360000
