20
Properties=species:S:1:pos:R:3 gdb_89168=T pbc="F F F"
C       -0.08730000       1.54760000       0.08590000
C       -0.03560000       0.03200000      -0.05410000
C        1.12590000      -0.49860000      -0.97360000
C        1.75710000      -1.18780000       0.24980000
C        3.21560000      -1.38960000       0.52330000
C        0.62680000      -0.69550000       1.12960000
N        0.73150000      -2.09750000       0.76850000
C        0.93500000      -3.11150000       1.68020000
O        0.40980000      -3.19010000       2.76700000
H        0.89000000       1.95490000       0.37010000
H       -0.38240000       2.01630000      -0.85850000
H       -0.80970000       1.84960000       0.85160000
H       -1.02340000      -0.36690000      -0.30180000
H        0.84900000      -1.16140000      -1.79660000
H        1.74510000       0.31760000      -1.35610000
H        3.76810000      -0.46280000       0.34000000
H        3.38750000      -1.69160000       1.56130000
H        3.64030000      -2.16210000      -0.12840000
H        0.63010000      -0.41910000       2.17800000
H        1.58050000      -3.90960000       1.26470000
