20
Properties=species:S:1:pos:R:3 gdb_62954=T pbc="F F F"
C       -0.02540000       1.56330000      -0.08070000
C       -0.00340000       0.04120000       0.00370000
C       -1.38720000      -0.57840000      -0.18940000
C        1.06310000      -0.65780000      -0.88270000
O        2.35300000      -0.19380000      -0.47960000
C        1.73990000      -1.25000000       0.28150000
C        0.76150000      -0.58180000       1.22600000
C        0.97280000      -0.05100000       2.58570000
N        0.17020000      -1.27610000       2.36250000
H        0.98860000       1.96280000      -0.00650000
H       -0.46280000       1.89830000      -1.02830000
H       -0.62640000       1.99440000       0.72830000
H       -1.80530000      -0.29130000      -1.16050000
H       -1.35070000      -1.67170000      -0.14510000
H       -2.08740000      -0.23160000       0.57930000
H        0.95330000      -1.02220000      -1.89860000
H        2.28720000      -2.17740000       0.40130000
H        1.91720000      -0.20760000       3.09960000
H        0.45500000       0.86560000       2.85810000
H       -0.82260000      -1.06480000       2.43430000
