18
Properties=species:S:1:pos:R:3 gdb_33101=T pbc="F F F"
C       -0.09550000       1.60000000       0.01930000
N       -0.06400000       0.14440000      -0.04450000
H        0.24420000      -0.22970000       0.84750000
H       -1.24930000      -2.52480000      -0.61340000
C        0.81470000      -0.36680000      -1.09660000
C        0.76200000      -1.85740000      -1.15660000
C        1.76860000      -2.71730000      -1.01200000
O        1.40910000      -4.05060000      -1.11180000
C        0.04010000      -4.10770000      -1.33480000
O       -0.53450000      -5.14480000      -1.45640000
C       -0.48230000      -2.67410000      -1.38000000
H        0.89710000       2.07160000       0.13330000
H       -0.54420000       1.99530000      -0.89920000
H       -0.72210000       1.91570000       0.85810000
H        0.45790000       0.05730000      -2.04680000
H        1.86590000      -0.03930000      -0.98920000
H        2.82150000      -2.55130000      -0.83500000
H       -0.96710000      -2.48970000      -2.34600000
