15
Properties=species:S:1:pos:R:3 gdb_10948=T pbc="F F F"
O       -0.09970000       1.40040000      -0.16230000
C       -0.07480000       0.03870000       0.03420000
C       -0.32790000      -0.96920000      -1.05940000
C       -1.26470000      -0.89840000       0.13100000
N       -0.65680000      -1.53200000       1.29270000
C        0.51450000      -0.63350000       1.29150000
C       -0.71070000      -2.82260000       1.71420000
O        0.10490000      -3.34280000       2.44560000
H        0.63280000       1.64050000      -0.74030000
H       -0.73440000      -0.53140000      -1.96620000
H        0.31500000      -1.83340000      -1.20470000
H       -2.32840000      -0.70800000       0.06680000
H        1.47690000      -1.14610000       1.20270000
H        0.52200000       0.03550000       2.15680000
H       -1.62000000      -3.33810000       1.34160000
