22
Properties=species:S:1:pos:R:3 gdb_80406=T pbc="F F F"
C        0.09120000       1.75160000       0.06700000
N        0.04490000       0.29580000       0.02810000
C        1.19490000      -0.51060000      -0.35700000
C        2.59120000       0.09540000      -0.36380000
C        2.97240000       0.43440000       1.10730000
C        4.21420000      -0.34140000       1.55990000
O        3.25570000       1.83900000       1.14610000
C        1.72450000       0.06240000       1.97670000
C        0.67270000      -0.53080000       1.04910000
H        1.03130000       2.19030000       0.42460000
H       -0.10120000       2.12920000      -0.94280000
H       -0.72210000       2.10460000       0.71020000
H        0.98090000      -1.29920000      -1.07490000
H        3.29810000      -0.62150000      -0.79270000
H        2.65530000       1.00530000      -0.96810000
H        5.07440000      -0.07900000       0.93700000
H        4.46050000      -0.11130000       2.60400000
H        4.04830000      -1.42150000       1.48980000
H        3.49780000       2.06660000       2.05030000
H        1.98750000      -0.67290000       2.74450000
H        1.36020000       0.95350000       2.50030000
H        0.05010000      -1.33450000       1.43590000
