18
Properties=species:S:1:pos:R:3 gdb_46197=T pbc="F F F"
O       -0.09050000      -0.00290000       0.02270000
C       -0.05860000       1.20130000       0.03030000
N       -1.04470000       2.15980000       0.05650000
C       -0.15170000       3.32150000       0.04620000
C        1.02360000       2.30240000       0.01600000
C        2.27540000       2.33150000       0.93330000
C        2.89700000       1.27400000      -0.02850000
C        2.23740000       2.34380000      -0.95060000
C        2.84710000       3.42830000      -0.01340000
H       -2.05000000       2.08310000       0.07540000
H       -0.24870000       3.95330000      -0.84330000
H       -0.21310000       3.94190000       0.94680000
H        2.27950000       2.32330000       2.02390000
H        3.98920000       1.23640000      -0.05080000
H        2.44440000       0.28280000      -0.02590000
H        2.19740000       2.34990000      -2.04050000
H        2.35920000       4.40680000       0.00280000
H        3.93600000       3.52750000      -0.03470000
