16
Properties=species:S:1:pos:R:3 gdb_67532=T pbc="F F F"
C       -0.04060000       1.57860000      -0.01390000
C        0.00500000       0.07050000       0.02230000
C       -1.20420000      -0.68420000       0.66790000
O       -1.03550000      -2.08130000       0.45610000
C       -0.31310000      -1.48340000       1.53100000
C        0.93560000      -0.78330000       0.92130000
O        1.49540000      -1.44040000      -0.24810000
C        0.68100000      -0.70390000      -1.10170000
N        0.61450000      -0.68440000      -2.35080000
H        0.94620000       1.99880000      -0.22730000
H       -0.72480000       1.91510000      -0.79940000
H       -0.38980000       1.98690000       0.94040000
H       -2.20970000      -0.30930000       0.82150000
H       -0.44570000      -1.90290000       2.52120000
H        1.69090000      -0.37860000       1.59360000
H        1.25840000      -1.35460000      -2.77450000
