13
Properties=species:S:1:pos:R:3 gdb_905=T pbc="F F F"
C       -0.05940000       1.45610000      -0.01670000
N       -0.00070000       0.01140000       0.02980000
C       -0.02220000      -0.83640000      -1.02670000
N        0.04690000      -2.10160000      -0.65400000
C        0.11600000      -2.06040000       0.70730000
O        0.19870000      -3.19020000       1.44370000
C        0.08960000      -0.77010000       1.17360000
H        0.83770000       1.89850000       0.42810000
H       -0.12570000       1.77470000      -1.05880000
H       -0.93770000       1.82930000       0.51980000
H       -0.08910000      -0.48070000      -2.04410000
H        0.19440000      -3.91970000       0.81200000
H        0.12410000      -0.34790000       2.16220000
