17
Properties=species:S:1:pos:R:3 gdb_43219=T pbc="F F F"
O        0.09730000       0.03960000       0.22040000
C        0.03680000       1.22720000       0.12230000
C       -1.08800000       2.26760000      -0.03470000
C       -1.37090000       2.82910000       1.36410000
N       -0.06260000       3.03020000       2.01530000
C        0.93610000       3.45430000       1.03100000
C        0.31740000       4.35950000      -0.06510000
N       -0.09750000       3.13060000      -0.82540000
C        1.02030000       2.36320000      -0.09850000
H       -1.99270000       2.00390000      -0.58380000
H       -1.96480000       3.75140000       1.27040000
H       -1.96550000       2.11360000       1.94200000
H       -0.13660000       3.71770000       2.75730000
H        1.85820000       3.74820000       1.53670000
H       -0.47840000       5.05490000       0.21940000
H        1.05790000       4.89620000      -0.66490000
H        1.97790000       2.21880000      -0.60140000
