17
Properties=species:S:1:pos:R:3 gdb_36710=T pbc="F F F"
N        0.00280000      -1.13150000      -0.18390000
C       -0.01090000       0.01990000      -0.08720000
C       -0.00280000       1.47510000       0.03660000
C        1.42390000       2.05810000       0.02750000
C        1.42790000       3.57630000       0.15780000
C        2.82900000       4.23250000       0.01310000
N        2.74410000       5.06100000      -1.20160000
C        1.55600000       4.94040000      -1.61830000
O        0.67460000       4.15730000      -0.94520000
H       -0.58030000       1.90690000      -0.78680000
H       -0.52000000       1.74870000       0.96400000
H        2.00380000       1.63390000       0.85470000
H        1.93200000       1.77400000      -0.90030000
H        0.91860000       3.88000000       1.07870000
H        3.08870000       4.85970000       0.87160000
H        3.62360000       3.48640000      -0.09910000
H        1.14340000       5.42130000      -2.49820000
