11
Properties=species:S:1:pos:R:3 gdb_21834=T pbc="F F F"
O       -0.27970000       0.03280000       0.00230000
C       -0.08000000       1.22360000       0.00830000
N        1.16190000       1.81380000       0.00110000
C        2.36490000       1.12960000      -0.01380000
N        3.50350000       1.77370000      -0.01860000
O        4.46490000       0.79820000      -0.03380000
N        3.91270000      -0.44740000      -0.03830000
C        2.62110000      -0.27410000      -0.02620000
H       -0.88340000       1.98160000       0.02080000
H        1.22220000       2.82190000       0.00760000
H        1.92170000      -1.09130000      -0.02630000
