25
Properties=species:S:1:pos:R:3 gdb_118480=T pbc="F F F"
C       -0.08450000       1.43570000       0.03090000
O       -0.00450000       0.03120000       0.05080000
C        0.61610000      -0.49860000      -1.10370000
C        0.60160000      -2.02570000      -1.02850000
O       -0.73300000      -2.50480000      -1.13630000
C       -1.43080000      -2.65990000       0.08420000
C        1.41780000      -2.69320000      -2.15650000
C        2.88920000      -2.25120000      -2.17330000
C        1.32440000      -4.22180000      -2.04650000
H        0.91300000       1.89990000      -0.03140000
H       -0.68370000       1.79960000      -0.81870000
H       -0.56250000       1.75150000       0.96150000
H        0.07590000      -0.18310000      -2.01200000
H        1.64700000      -0.11910000      -1.17490000
H        1.02700000      -2.32520000      -0.05600000
H       -2.39920000      -3.10440000      -0.16250000
H       -0.89880000      -3.34010000       0.76750000
H       -1.58600000      -1.70330000       0.59300000
H        0.95110000      -2.39350000      -3.10520000
H        3.36390000      -2.42360000      -1.19970000
H        3.44740000      -2.83050000      -2.91570000
H        3.01430000      -1.19480000      -2.42510000
H        0.28370000      -4.54830000      -2.03010000
H        1.82830000      -4.70070000      -2.89210000
H        1.80980000      -4.57620000      -1.12860000
