21
Properties=species:S:1:pos:R:3 gdb_72228=T pbc="F F F"
C       -0.05500000       1.52240000       0.02060000
C        0.02060000       0.02140000      -0.00440000
C       -0.08040000      -0.80150000      -1.29680000
C       -0.57810000      -2.00550000      -0.43890000
O        0.48860000      -2.87710000      -0.09430000
C        1.42600000      -2.08510000       0.63780000
C        0.66590000      -0.83400000       1.09140000
C        1.08820000      -0.20140000       2.39650000
C       -0.78620000      -1.03940000       0.74940000
H        0.84420000       1.96740000      -0.42330000
H       -0.91490000       1.87460000      -0.56110000
H       -0.15450000       1.92340000       1.03270000
H       -0.87390000      -0.40960000      -1.94130000
H        0.82080000      -0.96980000      -1.89710000
H       -1.40560000      -2.60230000      -0.81960000
H        1.77990000      -2.66930000       1.49630000
H        2.29720000      -1.84290000       0.01180000
H        2.08810000       0.24260000       2.32310000
H        0.40110000       0.58650000       2.71480000
H        1.11810000      -0.95240000       3.19400000
H       -1.61390000      -0.96390000       1.44340000
