21
Properties=species:S:1:pos:R:3 gdb_113810=T pbc="F F F"
C       -0.02670000       1.48770000      -0.20250000
C       -0.18690000       0.03530000       0.16730000
O        0.97010000      -0.80200000       0.06890000
C        0.38570000      -0.60190000       1.36750000
C        1.19750000       0.10900000       2.39740000
C        0.85470000      -0.05540000       3.86240000
C        2.13660000      -0.63360000       3.32890000
C        2.34590000      -2.12290000       3.24870000
O        2.81410000      -2.56170000       4.51860000
H        0.89780000       1.90960000       0.19620000
H       -0.00160000       1.59580000      -1.29190000
H       -0.87240000       2.07440000       0.17250000
H       -1.09140000      -0.42690000      -0.23670000
H       -0.14310000      -1.48190000       1.73880000
H        1.54820000       1.08960000       2.09520000
H        0.89450000       0.81540000       4.50650000
H        0.06230000      -0.75520000       4.11110000
H        3.04520000      -0.09650000       3.58640000
H        1.40740000      -2.63060000       2.97890000
H        3.07650000      -2.35060000       2.45690000
H        3.04790000      -3.49160000       4.44290000
