21
Properties=species:S:1:pos:R:3 gdb_112480=T pbc="F F F"
C        0.34910000       1.51380000      -0.03020000
C        0.22490000      -0.01240000       0.00500000
C        0.45680000      -0.64460000      -1.35250000
O        1.84640000      -0.48490000      -1.81030000
C        2.07030000      -1.85210000      -1.75570000
N        3.12340000      -2.51460000      -1.88700000
C        4.37330000      -1.81550000      -2.15500000
C        0.62100000      -2.19160000      -1.42640000
N        0.27120000      -2.98560000      -0.26900000
H        1.33990000       1.81220000      -0.38460000
H       -0.39450000       1.95590000      -0.70250000
H        0.19840000       1.94390000       0.96410000
H        0.94220000      -0.42660000       0.72400000
H       -0.77090000      -0.31470000       0.34970000
H       -0.21870000      -0.22020000      -2.10300000
H        4.30730000      -0.72670000      -2.04440000
H        5.14710000      -2.19530000      -1.47950000
H        4.70310000      -2.04040000      -3.17600000
H        0.10250000      -2.60120000      -2.29770000
H        0.29830000      -3.97080000      -0.50920000
H        0.95550000      -2.85790000       0.47000000
