20
Properties=species:S:1:pos:R:3 gdb_12525=T pbc="F F F"
C        0.02550000       1.59040000       0.01220000
C       -0.01520000       0.05470000       0.00440000
C        0.56800000      -0.47160000      -1.31870000
C        0.40640000      -1.93690000      -1.61240000
C        0.28620000      -2.95960000      -0.75370000
C        0.32620000      -2.96630000       0.70620000
C        0.51420000      -1.95240000       1.56290000
C        0.68990000      -0.49030000       1.25990000
H        1.05900000       1.95550000      -0.03040000
H       -0.50860000       2.00800000      -0.84750000
H       -0.43180000       1.99650000       0.92020000
H       -1.06560000      -0.26120000       0.05220000
H        0.09910000       0.08550000      -2.14070000
H        1.63540000      -0.20430000      -1.37580000
H        0.38420000      -2.18350000      -2.67230000
H        0.16640000      -3.94700000      -1.19510000
H        0.21360000      -3.95540000       1.14570000
H        0.54490000      -2.20380000       2.62130000
H        1.76450000      -0.25420000       1.20270000
H        0.32600000       0.07630000       2.12680000
