14
Properties=species:S:1:pos:R:3 gdb_931=T pbc="F F F"
C       -0.01480000       1.52550000       0.01040000
C       -0.00910000       0.01910000       0.00230000
C       -0.00220000      -0.70690000      -1.19030000
C        0.02960000      -2.09690000      -1.14530000
N        0.05160000      -2.80630000      -0.01350000
C        0.04230000      -2.10930000       1.12620000
C        0.01110000      -0.71980000       1.18660000
H        1.00910000       1.91860000       0.00250000
H       -0.52420000       1.92770000      -0.86980000
H       -0.50700000       1.91820000       0.90450000
H       -0.02390000      -0.19550000      -2.14770000
H        0.03300000      -2.67080000      -2.06960000
H        0.05600000      -2.69320000       2.04410000
H        0.00010000      -0.21890000       2.14970000
