14
Properties=species:S:1:pos:R:3 gdb_24867=T pbc="F F F"
N       -0.08830000       1.30280000      -0.31170000
C        0.00870000       0.08230000       0.03180000
N       -1.11400000      -0.60500000       0.45040000
C       -1.18720000      -1.92340000       0.85580000
N       -2.30410000      -2.41380000       1.21500000
N        0.04590000      -2.57640000       0.81340000
C        1.25640000      -2.03010000       0.42150000
O        2.29240000      -2.65240000       0.41040000
N        1.16380000      -0.70140000       0.04310000
H        0.80570000       1.69280000      -0.59860000
H       -1.97810000      -0.08520000       0.46150000
H       -2.22440000      -3.38950000       1.48920000
H        0.08860000      -3.54330000       1.09420000
H        2.03330000      -0.28160000      -0.24570000
