14
Properties=species:S:1:pos:R:3 gdb_128597=T pbc="F F F"
C        0.05570000       1.40180000       0.00710000
O       -0.00980000      -0.02010000       0.00250000
C       -1.21560000      -0.58910000       0.01010000
C       -2.42990000       0.03650000       0.02210000
N       -3.63800000      -0.62460000       0.02970000
N       -3.67330000      -1.89470000       0.02600000
N       -2.49420000      -2.55570000       0.01420000
C       -1.19020000      -2.05420000       0.00450000
O       -0.21880000      -2.77910000      -0.00440000
H        1.11620000       1.65200000      -0.00060000
H       -0.42910000       1.82080000      -0.88240000
H       -0.41460000       1.81430000       0.90740000
H       -2.52230000       1.11510000       0.02660000
H       -2.58950000      -3.56380000       0.01220000
