18
Properties=species:S:1:pos:R:3 gdb_37180=T pbc="F F F"
C       -0.03470000       1.46950000       0.18940000
C        1.50020000       1.49550000      -0.12090000
C        1.25470000       0.13410000      -0.78490000
C        0.40800000       0.14040000      -2.10340000
C       -0.45630000      -0.78650000      -1.23110000
C        0.51700000      -1.99560000      -1.01390000
O        1.63380000      -2.07420000      -1.91730000
C        1.78310000      -1.31010000      -0.71300000
N       -0.02090000      -0.03540000       0.02610000
H       -0.33650000       1.75260000       1.19980000
H       -0.63480000       2.03920000      -0.52700000
H        1.88160000       2.29820000      -0.75450000
H        2.10200000       1.42530000       0.78860000
H       -0.05520000       1.10650000      -2.29240000
H        0.84980000      -0.26030000      -3.01340000
H       -1.51050000      -1.00990000      -1.40120000
H        0.18830000      -2.92700000      -0.56800000
H        2.52150000      -1.64850000       0.00470000
