22
Properties=species:S:1:pos:R:3 gdb_7642=T pbc="F F F"
C        0.03420000       1.56210000      -0.02230000
C        0.02810000       0.03920000       0.11970000
O        0.68380000      -0.37390000       1.31870000
C       -1.37200000      -0.55440000       0.03000000
C       -2.11990000      -0.53040000      -1.33380000
C       -2.63700000      -1.96750000      -1.03740000
C       -2.70010000      -2.97790000      -2.17210000
C       -1.51690000      -2.10000000       0.03340000
H        1.05460000       1.94780000       0.05290000
H       -0.38660000       1.87390000      -0.98390000
H       -0.56630000       2.02710000       0.77010000
H        0.63960000      -0.39610000      -0.68200000
H        0.18390000      -0.01440000       2.06010000
H       -2.00040000      -0.10830000       0.81360000
H       -2.85800000       0.25740000      -1.50450000
H       -1.41240000      -0.53000000      -2.17180000
H       -3.61300000      -1.90740000      -0.54160000
H       -1.73370000      -3.05340000      -2.68390000
H       -2.95890000      -3.97640000      -1.80200000
H       -3.45130000      -2.69500000      -2.91840000
H       -0.62110000      -2.57730000      -0.37970000
H       -1.76340000      -2.59210000       0.97690000
