14
Properties=species:S:1:pos:R:3 gdb_8760=T pbc="F F F"
C       -0.36840000       1.40560000      -0.16080000
N        0.00480000      -0.01260000      -0.05440000
C        0.03690000      -0.60920000       1.21450000
N       -0.24740000       0.04550000       2.26370000
C        0.33100000      -0.81130000      -1.13060000
O        0.64050000      -1.98690000      -1.04310000
C        0.31910000      -0.23070000      -2.55350000
O        0.05060000       0.89000000      -2.89020000
H        0.44080000       1.98740000      -0.60270000
H       -1.25970000       1.52690000      -0.77680000
H       -0.56530000       1.74950000       0.85280000
H        0.32680000      -1.65730000       1.15480000
H       -0.16850000      -0.55440000       3.08240000
H        0.60770000      -1.03020000      -3.26530000
