18
Properties=species:S:1:pos:R:3 gdb_53106=T pbc="F F F"
C       -0.23570000       1.34810000      -0.28420000
C       -0.08260000      -0.08880000      -0.11870000
C        0.02960000      -1.28200000       0.00100000
C        0.20810000      -2.70170000       0.12420000
C       -0.41330000      -3.47950000       1.27960000
C       -1.22600000      -2.78790000       2.34700000
N       -0.90450000      -3.62070000      -0.07230000
C       -2.16220000      -3.33770000      -0.56700000
O       -2.39420000      -2.67120000      -1.54470000
H        0.62570000       1.77790000      -0.80680000
H       -1.13100000       1.57980000      -0.87110000
H       -0.32680000       1.85630000       0.68210000
H        1.15290000      -3.07820000      -0.26400000
H        0.15970000      -4.33960000       1.62580000
H       -1.70680000      -1.88780000       1.95640000
H       -1.99710000      -3.45520000       2.74480000
H       -0.57680000      -2.49640000       3.17880000
H       -2.94680000      -3.87500000       0.00250000
