22
Properties=species:S:1:pos:R:3 gdb_110977=T pbc="F F F"
C        0.15570000       1.57810000       0.11470000
C       -0.03200000       0.06070000       0.06800000
N        0.63240000      -0.47210000      -1.12860000
C       -0.11530000      -0.61580000      -2.43900000
C        1.06070000      -1.52630000      -2.87710000
C        0.64950000      -1.96780000      -1.43930000
C        1.29180000      -2.97810000      -0.53430000
C       -0.81840000      -1.93030000      -1.95760000
O       -1.83270000      -1.93780000      -0.98720000
H        1.21700000       1.83860000       0.06950000
H       -0.34310000       2.06240000      -0.73230000
H       -0.27160000       1.99360000       1.03340000
H        0.47190000      -0.39110000       0.93250000
H       -1.09290000      -0.19260000       0.14970000
H       -0.53490000       0.24060000      -2.96940000
H        0.88660000      -2.23130000      -3.69250000
H        2.02270000      -1.02100000      -2.93520000
H        2.32420000      -2.69220000      -0.31050000
H        0.74240000      -3.06170000       0.40890000
H        1.30090000      -3.96560000      -1.00700000
H       -1.04950000      -2.64960000      -2.75840000
H       -2.67780000      -1.82650000      -1.43360000
