19
Properties=species:S:1:pos:R:3 gdb_78450=T pbc="F F F"
C        0.05650000       1.52630000       0.02150000
C       -0.02110000       0.01360000      -0.00860000
C        1.25710000      -0.74880000      -0.27330000
C        0.63580000      -0.74480000       1.12210000
C        0.41780000      -2.25450000       1.26770000
O        1.70520000      -2.80260000       0.76820000
C        1.21610000      -2.25980000      -0.52530000
C       -0.18860000      -2.75050000      -0.07510000
O       -0.36190000      -4.13650000      -0.14830000
H        1.00790000       1.86600000       0.44430000
H       -0.02910000       1.94400000      -0.98710000
H       -0.74960000       1.94870000       0.63050000
H       -0.95200000      -0.35800000      -0.42200000
H        2.16660000      -0.20480000      -0.50130000
H        1.07610000      -0.19770000       1.94800000
H        0.11730000      -2.66250000       2.23260000
H        1.73130000      -2.67310000      -1.39220000
H       -1.09400000      -2.30100000      -0.47960000
H        0.45090000      -4.51510000       0.21480000
