18
Properties=species:S:1:pos:R:3 gdb_58670=T pbc="F F F"
C        0.05910000       1.39080000      -0.42140000
C        0.04870000       0.05610000       0.32120000
O        0.48700000       0.16590000       1.66370000
C       -1.33800000      -0.59560000       0.28000000
O       -1.79780000      -1.08750000      -0.97990000
C       -1.57910000      -2.04270000       0.06760000
C       -0.49950000      -3.07390000      -0.11840000
C       -2.32840000       0.14360000       1.05480000
N       -3.06440000       0.76380000       1.69570000
H        1.06140000       1.82470000      -0.38610000
H       -0.23180000       1.25160000      -1.46650000
H       -0.64270000       2.09780000       0.03550000
H        0.75040000      -0.62910000      -0.15970000
H       -0.01790000       0.86850000       2.09090000
H       -2.50820000      -2.42840000       0.48980000
H        0.39510000      -2.65850000      -0.58430000
H       -0.22610000      -3.50830000       0.84820000
H       -0.87150000      -3.87990000      -0.75860000
