18
Properties=species:S:1:pos:R:3 gdb_54594=T pbc="F F F"
N        0.32510000       1.02140000      -0.49490000
C       -0.14740000       0.15800000       0.44950000
O        0.42500000      -0.01290000       1.51180000
C       -1.39360000      -0.62260000       0.10420000
C       -2.31070000      -0.98640000       1.31390000
C       -2.16720000      -2.50550000       0.99530000
C       -1.34370000      -2.15180000      -0.25420000
O       -2.16020000      -1.92760000      -1.42210000
C       -2.15630000      -0.49920000      -1.22760000
H        1.14200000       1.56270000      -0.26250000
H       -0.18340000       1.25110000      -1.32900000
H       -1.85710000      -0.69510000       2.26060000
H       -3.32100000      -0.57500000       1.24860000
H       -1.58910000      -3.04400000       1.75020000
H       -3.08290000      -3.05910000       0.77820000
H       -0.43200000      -2.70970000      -0.48270000
H       -3.16780000      -0.07790000      -1.16850000
H       -1.61820000      -0.00170000      -2.04790000
