18
Properties=species:S:1:pos:R:3 gdb_88313=T pbc="F F F"
C       -0.36100000       1.48990000       0.26360000
C       -0.02110000       0.01830000       0.23020000
C        1.26820000      -0.47980000      -0.34100000
C        1.04070000      -0.60920000       1.14940000
C        1.82140000       0.21260000       2.09490000
N        2.49160000       1.23820000       1.78260000
O        1.73620000      -0.32910000       3.38370000
C        1.58090000       0.50930000       4.44620000
O        1.63640000       0.12210000       5.57060000
H        0.52580000       2.09660000       0.45720000
H       -0.78380000       1.79870000      -0.69850000
H       -1.10480000       1.70780000       1.03790000
H       -0.87860000      -0.63480000       0.08910000
H        1.27640000      -1.39360000      -0.92440000
H        2.00120000       0.26400000      -0.63390000
H        0.79750000      -1.58750000       1.54540000
H        2.98730000       1.65270000       2.56960000
H        1.37500000       1.54850000       4.13770000
