19
Properties=species:S:1:pos:R:3 gdb_39380=T pbc="F F F"
C       -0.05980000       1.56830000       0.24170000
C        1.19300000       0.81820000      -0.05420000
C        2.26700000       0.71460000       0.99500000
O        3.15640000      -0.37990000       0.78500000
C        2.78310000      -1.69190000       0.87990000
N        1.72000000      -2.33630000       1.03790000
C        0.30710000      -2.07740000       1.15000000
C       -0.29640000      -0.67720000       1.28400000
N       -0.08640000       0.11990000       0.08240000
H       -0.17480000       1.97130000       1.24810000
H       -0.55020000       2.14720000      -0.53570000
H        1.58050000       0.82750000      -1.07150000
H        2.91410000       1.59520000       0.94250000
H        1.85010000       0.67230000       2.00640000
H        3.71230000      -2.25780000       0.77740000
H       -0.15290000      -2.54690000       0.27020000
H       -0.04420000      -2.66350000       2.00980000
H       -1.37970000      -0.80500000       1.39990000
H        0.05470000      -0.18870000       2.20760000
