19
Properties=species:S:1:pos:R:3 gdb_33250=T pbc="F F F"
O       -0.02120000       1.44390000      -0.22030000
C        0.04310000       0.04380000       0.00400000
C       -1.37470000      -0.50790000      -0.06100000
C       -1.42870000      -2.02990000       0.15550000
C       -2.81780000      -2.59060000       0.07590000
C       -3.54210000      -3.14770000       1.08360000
O       -4.77150000      -3.53810000       0.64870000
C       -4.83510000      -3.22200000      -0.67070000
C       -3.67800000      -2.64270000      -1.07840000
H        0.87190000       1.79720000      -0.17510000
H        0.67060000      -0.45360000      -0.75460000
H        0.48600000      -0.18290000       0.98830000
H       -1.98800000      -0.00300000       0.69360000
H       -1.80490000      -0.25040000      -1.03570000
H       -0.79060000      -2.52090000      -0.59200000
H       -0.99700000      -2.27580000       1.13330000
H       -3.33190000      -3.33510000       2.12410000
H       -5.75760000      -3.47310000      -1.16790000
H       -3.45170000      -2.29430000      -2.07460000
