16
Properties=species:S:1:pos:R:3 gdb_25691=T pbc="F F F"
C       -0.04050000       1.46360000       0.00130000
C       -0.00770000       0.00930000       0.00050000
C        0.02460000      -1.19750000      -0.00050000
C        0.03770000      -2.61250000      -0.00010000
C        1.15270000      -3.42170000      -0.07650000
N        0.72470000      -4.73120000      -0.04550000
C       -0.63820000      -4.76280000       0.04880000
O       -1.23080000      -5.98260000       0.09100000
C       -1.11320000      -3.47830000       0.08040000
H        0.97140000       1.88330000       0.03480000
H       -0.52910000       1.85760000      -0.89790000
H       -0.58570000       1.85370000       0.86890000
H        2.19740000      -3.17220000      -0.14900000
H        1.30530000      -5.55060000      -0.08490000
H       -2.18180000      -5.85460000       0.15690000
H       -2.14290000      -3.16660000       0.15130000
