20
Properties=species:S:1:pos:R:3 gdb_23166=T pbc="F F F"
C       -0.01750000       1.60650000      -0.08900000
C        0.11530000       0.08500000       0.01060000
C        0.75300000      -0.52480000      -1.24660000
C        0.82400000      -2.08950000      -1.27980000
O        0.59860000      -2.68480000      -0.02550000
C       -0.33630000      -2.12450000      -2.32770000
C       -0.16680000      -0.62500000      -2.45020000
N       -0.53940000       0.26760000      -3.26830000
O       -1.37270000      -0.27960000      -4.26510000
H        0.96470000       2.08350000      -0.18140000
H       -0.60710000       1.89260000      -0.96540000
H       -0.50530000       2.01620000       0.80100000
H        0.72860000      -0.19210000       0.87480000
H       -0.86740000      -0.36840000       0.17960000
H        1.70930000      -0.02950000      -1.44550000
H        1.76900000      -2.43410000      -1.72050000
H        0.61490000      -3.64050000      -0.13600000
H       -0.19500000      -2.70830000      -3.24060000
H       -1.29090000      -2.40490000      -1.86900000
H       -1.55500000       0.48760000      -4.81830000
