23
Properties=species:S:1:pos:R:3 gdb_67450=T pbc="F F F"
C       -0.04140000       1.52510000       0.04670000
C        0.00110000       0.01850000      -0.02240000
C        0.67040000      -0.82170000      -1.17360000
C        1.67640000      -1.39890000      -0.15600000
C        0.85400000      -0.78800000       1.02240000
C       -0.08980000      -1.76590000       1.76640000
C       -1.51170000      -1.53570000       1.18820000
C       -1.30450000      -0.82030000      -0.14930000
C       -0.64520000      -1.63710000      -1.30850000
H        0.96670000       1.95620000       0.05470000
H       -0.57670000       1.95130000      -0.80990000
H       -0.55080000       1.86570000       0.95730000
H        1.06960000      -0.38270000      -2.08990000
H        1.81250000      -2.48640000      -0.14960000
H        2.66090000      -0.93130000      -0.24950000
H        1.44860000      -0.18340000       1.71130000
H        0.23670000      -2.79970000       1.61130000
H       -0.07450000      -1.59980000       2.84760000
H       -2.08060000      -2.46610000       1.08580000
H       -2.08790000      -0.88660000       1.85870000
H       -2.19130000      -0.26650000      -0.46950000
H       -1.14600000      -1.48340000      -2.26750000
H       -0.55380000      -2.71650000      -1.14560000
