19
Properties=species:S:1:pos:R:3 gdb_104906=T pbc="F F F"
C       -0.08370000       1.54420000      -0.04010000
C        0.05990000       0.04180000       0.00860000
O       -1.05590000      -0.55760000      -0.58080000
C        1.40100000      -0.61530000      -0.15090000
C        0.70140000      -0.66820000       1.21430000
C        1.29760000       0.09700000       2.39100000
O        2.36410000      -0.60290000       3.00440000
C        0.09850000      -1.91670000       1.59250000
C       -0.43800000      -2.94550000       1.92040000
H        0.81170000       2.05790000       0.31470000
H       -0.25810000       1.84690000      -1.07750000
H       -0.94220000       1.87170000       0.55380000
H       -1.22890000      -1.39650000      -0.13390000
H        1.44280000      -1.53400000      -0.72450000
H        2.29110000       0.00320000      -0.20650000
H        1.72140000       1.04330000       2.04710000
H        0.50220000       0.32960000       3.11520000
H        2.02090000      -1.45770000       3.28880000
H       -0.89350000      -3.86080000       2.20900000
