20
Properties=species:S:1:pos:R:3 gdb_19875=T pbc="F F F"
C       -0.27500000       1.55680000      -0.11090000
C        0.02340000       0.07520000       0.03680000
C        1.32010000      -0.60650000      -0.34040000
C        2.64190000       0.17670000      -0.35130000
C        3.01990000       0.46400000       1.11080000
C        2.22310000       1.44540000       1.93500000
C        1.88680000      -0.02700000       1.99010000
C        0.83220000      -0.65330000       1.10020000
H        0.61490000       2.15910000      -0.30510000
H       -0.94550000       1.70540000      -0.96420000
H       -0.77510000       1.96820000       0.77240000
H       -0.84030000      -0.52370000      -0.24820000
H        1.26390000      -1.47650000      -0.98730000
H        3.41750000      -0.44800000      -0.80560000
H        2.59090000       1.08880000      -0.95890000
H        4.05560000       0.30810000       1.39470000
H        2.72550000       1.85590000       2.80590000
H        1.54900000       2.14380000       1.46270000
H        2.08870000      -0.54980000       2.91850000
H        0.37690000      -1.55560000       1.49540000
