19
Properties=species:S:1:pos:R:3 gdb_103052=T pbc="F F F"
C        0.08580000       1.18850000      -0.30800000
O       -0.04790000      -0.12360000       0.21420000
C       -1.33450000      -0.65480000       0.08200000
C       -2.35940000       0.02250000       0.84370000
C       -3.19890000       0.60570000       1.47770000
C       -1.79610000      -1.26670000      -1.22980000
C       -0.59940000      -1.86060000      -1.98450000
C       -0.27150000      -2.75280000      -0.74550000
C       -1.47410000      -2.14970000      -0.01040000
H        1.13580000       1.46580000      -0.19320000
H       -0.18590000       1.22760000      -1.37200000
H       -0.54010000       1.90400000       0.24060000
H       -3.93990000       1.11320000       2.04430000
H       -2.75660000      -1.00310000      -1.65560000
H       -0.91210000      -2.45100000      -2.84810000
H        0.17220000      -1.15430000      -2.30060000
H       -0.40730000      -3.81610000      -0.95310000
H        0.69920000      -2.59760000      -0.27120000
H       -2.14420000      -2.67550000       0.65870000
