19
Properties=species:S:1:pos:R:3 gdb_105482=T pbc="F F F"
C       -1.53520000      -0.27320000       0.71340000
C       -0.13390000      -0.16370000       0.14390000
O        0.74670000       0.42290000       0.72970000
C        0.12180000      -0.84150000      -1.20290000
C       -0.93490000      -0.46940000      -2.24450000
O       -1.12980000       0.93030000      -2.35490000
C        1.58460000      -0.78520000      -1.69800000
O        1.69180000      -2.22600000      -1.69650000
C        0.38500000      -2.37440000      -1.12320000
H       -2.19380000       0.40150000       0.15530000
H       -1.93930000      -1.28610000       0.61230000
H       -1.52550000       0.02370000       1.76260000
H       -0.66150000      -0.92230000      -3.20970000
H       -1.90850000      -0.88170000      -1.95960000
H       -0.30520000       1.32920000      -2.65250000
H        1.73790000      -0.36700000      -2.70180000
H        2.27320000      -0.31580000      -0.99020000
H        0.41950000      -2.79170000      -0.10830000
H       -0.27630000      -2.99550000      -1.74200000
