20
Properties=species:S:1:pos:R:3 gdb_88788=T pbc="F F F"
C       -0.47860000       1.40180000       0.08510000
C       -0.06370000      -0.05130000       0.06700000
C        1.34440000      -0.44400000      -0.30000000
C        0.87320000      -0.62530000       1.11990000
N        1.42860000       0.20380000       2.13190000
C        0.89680000       0.59020000       3.44600000
C        2.24550000       1.31280000       3.71070000
C        2.65920000       0.80760000       2.30900000
O        3.63430000       0.88980000       1.60900000
H        0.32430000       2.03840000       0.46800000
H       -0.72270000       1.74930000      -0.92440000
H       -1.36280000       1.55870000       0.71310000
H       -0.84220000      -0.73960000      -0.25220000
H        1.51000000      -1.33760000      -0.89090000
H        2.06620000       0.34600000      -0.46850000
H        0.66700000      -1.64210000       1.45050000
H        0.01410000       1.23570000       3.39550000
H        0.68630000      -0.26140000       4.10260000
H        2.19190000       2.39890000       3.80200000
H        2.84750000       0.90680000       4.52550000
