21
Properties=species:S:1:pos:R:3 gdb_86376=T pbc="F F F"
C       -0.02710000       1.49670000      -0.01070000
C        0.03950000      -0.01100000      -0.00380000
C       -0.81270000      -0.80750000       0.95270000
C        0.68910000      -0.81860000       1.10190000
C        1.42900000      -1.99000000       0.48580000
O        1.28270000      -3.14950000       1.29560000
C        0.82020000      -2.12880000      -0.92870000
C        0.36640000      -0.70580000      -1.31920000
O       -0.76380000      -0.66670000      -2.18160000
H        0.91500000       1.93680000      -0.36010000
H       -0.82440000       1.84210000      -0.67730000
H       -0.23010000       1.89160000       0.98960000
H       -1.36860000      -0.23820000       1.68980000
H       -1.32240000      -1.70110000       0.61250000
H        1.12990000      -0.33310000       1.96580000
H        2.49580000      -1.72530000       0.40670000
H        1.81930000      -3.85000000       0.91120000
H        1.51890000      -2.56440000      -1.65020000
H       -0.05530000      -2.78320000      -0.87790000
H        1.20600000      -0.16390000      -1.78600000
H       -0.49540000      -1.00150000      -3.04280000
