14
Properties=species:S:1:pos:R:3 gdb_20904=T pbc="F F F"
C       -0.04990000       1.56780000      -0.00850000
C        0.01070000       0.04020000      -0.02670000
N        0.65820000      -0.48540000      -1.22160000
C        0.11850000      -0.81330000      -2.43080000
N        0.99160000      -1.21550000      -3.29110000
O        2.22850000      -1.14360000      -2.60040000
C        2.03010000      -0.68970000      -1.32500000
O        2.87860000      -0.51790000      -0.49430000
H        0.95810000       1.98860000      -0.04880000
H       -0.62300000       1.95330000      -0.85710000
H       -0.52940000       1.91080000       0.91280000
H        0.59230000      -0.32830000       0.82230000
H       -0.98980000      -0.39810000       0.03470000
H       -0.93700000      -0.75350000      -2.65270000
