19
Properties=species:S:1:pos:R:3 gdb_71437=T pbc="F F F"
C       -0.02140000       1.50970000       0.01250000
C       -0.02550000       0.00830000      -0.00090000
C       -1.28570000      -0.85890000      -0.08300000
C       -0.50760000      -2.01440000       0.65210000
C        0.61010000      -0.98590000       0.96210000
C        1.19270000      -0.80330000      -0.42370000
C        1.04410000      -2.07000000      -1.24740000
C        0.05720000      -2.92720000      -0.42760000
O       -0.21480000      -4.08240000      -0.62320000
H        0.96640000       1.90220000       0.27650000
H       -0.28610000       1.91690000      -0.97090000
H       -0.74200000       1.90220000       0.73920000
H       -2.07450000      -0.46810000       0.56490000
H       -1.71430000      -1.07660000      -1.06850000
H       -1.03000000      -2.53350000       1.45170000
H        1.13830000      -0.84100000       1.89540000
H        2.10820000      -0.22840000      -0.50830000
H        0.65730000      -1.92110000      -2.26170000
H        1.99310000      -2.60800000      -1.34310000
