15
Properties=species:S:1:pos:R:3 gdb_9715=T pbc="F F F"
O       -0.22580000       1.27620000      -0.23670000
C        0.04000000      -0.09740000       0.05220000
C       -1.32020000      -0.84400000       0.08980000
C       -1.45160000      -1.53650000      -1.28730000
C       -0.03980000      -1.53720000      -1.81260000
C        0.78120000      -0.79000000      -1.07890000
C        0.77310000      -0.18810000       1.33400000
N        1.37050000      -0.24380000       2.32210000
H        0.61450000       1.72430000      -0.38820000
H       -1.30460000      -1.58980000       0.88730000
H       -2.11730000      -0.13120000       0.30610000
H       -1.86670000      -2.54620000      -1.20070000
H       -2.11450000      -0.98620000      -1.96700000
H        0.24870000      -2.07190000      -2.71110000
H        1.83580000      -0.61700000      -1.25880000
