15
Properties=species:S:1:pos:R:3 gdb_30980=T pbc="F F F"
C       -0.00730000       1.41590000      -0.08650000
O        0.65680000       0.16440000       0.15740000
C        0.91240000      -0.56730000      -0.91710000
C        0.70200000      -1.85610000      -1.18670000
N        0.08780000      -2.86750000      -0.47650000
O        1.29870000      -2.11200000      -2.45370000
C        1.81090000      -0.93400000      -2.90670000
N        2.39430000      -0.68860000      -3.99300000
O        1.59790000       0.03290000      -1.96030000
H        0.59820000       2.05810000      -0.73110000
H       -0.98660000       1.24470000      -0.54680000
H       -0.13310000       1.88000000       0.89150000
H       -0.67390000      -3.30290000      -0.98640000
H        0.73140000      -3.59110000      -0.17200000
H        2.45580000      -1.53150000      -4.55830000
