19
Properties=species:S:1:pos:R:3 gdb_88449=T pbc="F F F"
C       -0.40970000       1.43460000       0.05430000
C        0.04000000      -0.00320000       0.09610000
O        1.43810000      -0.29450000      -0.11460000
C        0.85380000      -0.61050000       1.16230000
C        1.45110000       0.15260000       2.31110000
O        2.07880000       1.34890000       1.95350000
C        0.77550000       0.15800000       3.65800000
C        2.05940000      -0.62190000       3.45650000
O        2.01490000      -2.01760000       3.40050000
H        0.23150000       2.07270000       0.66220000
H       -0.40840000       1.80100000      -0.97800000
H       -1.43650000       1.50770000       0.42940000
H       -0.60620000      -0.69170000      -0.45290000
H        0.74040000      -1.67490000       1.35650000
H        2.45190000       1.18580000       1.07490000
H        0.81820000       1.08190000       4.22400000
H       -0.14230000      -0.41250000       3.76000000
H        2.96960000      -0.19240000       3.87250000
H        1.78210000      -2.34530000       4.27570000
