20
Properties=species:S:1:pos:R:3 gdb_54845=T pbc="F F F"
C        0.93790000       0.11760000       1.26040000
C        0.48330000      -0.43940000      -0.07850000
O        1.14780000      -0.28620000      -1.08490000
C       -0.81660000      -1.17360000      -0.03820000
C       -1.87110000      -0.99970000      -1.10760000
C       -1.51400000      -0.35590000      -2.44110000
C       -0.59380000      -1.38230000      -3.15550000
C       -0.37230000      -2.53290000      -2.13810000
N       -1.21140000      -2.28200000      -0.94330000
H        1.84030000       0.71400000       1.12320000
H        0.15010000       0.72940000       1.71420000
H        1.14360000      -0.70270000       1.95810000
H       -1.18250000      -1.33810000       0.97320000
H       -2.90050000      -0.93340000      -0.76210000
H       -2.43170000      -0.16850000      -3.00570000
H       -1.01140000       0.60520000      -2.31090000
H       -1.07070000      -1.76000000      -4.06450000
H        0.35400000      -0.92560000      -3.43650000
H       -0.70190000      -3.49500000      -2.54160000
H        0.67710000      -2.63220000      -1.85570000
