17
Properties=species:S:1:pos:R:3 gdb_43769=T pbc="F F F"
O        0.11750000       0.00530000       0.01170000
C        0.05190000       1.19490000       0.09090000
C       -1.13590000       2.19790000       0.22920000
C       -0.10520000       3.30480000      -0.07870000
O        0.84320000       3.22700000       0.98610000
C        1.03220000       2.33590000      -0.13830000
C       -0.28980000       4.59270000      -0.77780000
C       -1.34200000       4.75360000      -1.85020000
C       -1.52370000       5.43000000      -0.51940000
H       -1.87940000       2.00690000      -0.55010000
H       -1.62110000       2.27320000       1.20400000
H        1.98710000       2.36700000      -0.65000000
H        0.64040000       5.13310000      -0.92060000
H       -1.08580000       5.35940000      -2.71160000
H       -1.97650000       3.90490000      -2.08000000
H       -2.27220000       5.02700000       0.15400000
H       -1.39930000       6.50490000      -0.45780000
