14
Properties=species:S:1:pos:R:3 gdb_131946=T pbc="F F F"
C       -0.02640000       1.53470000       0.10800000
C       -0.01780000       0.05420000      -0.04790000
C        0.03290000      -0.77930000      -1.16140000
C        0.01280000      -2.10570000      -0.67720000
N       -0.04620000      -2.11780000       0.64270000
N       -0.06320000      -0.80480000       0.98980000
N        0.09340000      -0.36890000      -2.52580000
O        0.13230000      -1.24960000      -3.37920000
O        0.10270000       0.84050000      -2.75960000
H        0.87000000       1.97330000      -0.33760000
H       -0.88040000       1.97130000      -0.41580000
H       -0.07380000       1.81500000       1.16390000
H        0.03940000      -3.01900000      -1.24900000
H       -0.10730000      -0.56370000       1.96710000
