15
Properties=species:S:1:pos:R:3 gdb_45946=T pbc="F F F"
O        0.05640000       0.03420000      -0.14670000
C        0.02110000       1.23500000      -0.03950000
C       -1.24510000       2.09870000       0.03890000
N       -0.71890000       3.44990000       0.00550000
C        0.65000000       3.57160000      -0.03770000
O        1.27720000       4.60430000      -0.05050000
C        1.18510000       2.16260000      -0.01460000
C        2.43400000       1.79000000       0.73120000
N        2.43070000       1.80570000      -0.71700000
H       -1.90450000       1.86880000      -0.80700000
H       -1.79320000       1.87270000       0.96320000
H       -1.29720000       4.27350000       0.05460000
H        2.98030000       2.60500000       1.19660000
H        2.42350000       0.83800000       1.25510000
H        2.30960000       0.85200000      -1.06260000
