25
Properties=species:S:1:pos:R:3 gdb_123189=T pbc="F F F"
C       -0.04730000       1.61200000       0.05950000
C       -0.00830000       0.08200000       0.01900000
C        0.69870000      -0.47180000      -1.22270000
C        0.74160000      -2.00280000      -1.27000000
C        1.44870000      -2.55610000      -2.51190000
C        1.48810000      -4.08630000      -2.55330000
C        2.20250000      -4.62800000      -3.80830000
C        2.24650000      -6.08430000      -3.85930000
C        2.26920000      -7.28620000      -3.87680000
H        0.96400000       2.03410000       0.05770000
H       -0.57450000       2.01800000      -0.81120000
H       -0.55780000       1.97620000       0.95660000
H        0.49390000      -0.29590000       0.91950000
H       -1.03270000      -0.31200000       0.05740000
H        0.19670000      -0.09380000      -2.12450000
H        1.72410000      -0.07770000      -1.26200000
H        1.24370000      -2.38050000      -0.36850000
H       -0.28360000      -2.39650000      -1.23100000
H        0.94660000      -2.17980000      -3.41440000
H        2.47460000      -2.16370000      -2.55150000
H        1.99620000      -4.47220000      -1.66150000
H        0.46840000      -4.48830000      -2.52420000
H        1.69950000      -4.24690000      -4.70710000
H        3.22570000      -4.23090000      -3.84520000
H        2.29510000      -8.34710000      -3.90280000
