19
Properties=species:S:1:pos:R:3 gdb_41349=T pbc="F F F"
C        0.01040000       1.47680000      -0.06060000
O        1.46040000       1.45880000       0.13270000
C        1.36140000       0.11950000       0.70840000
C        2.20540000      -1.09140000       0.25650000
C        1.08880000      -1.91710000      -0.45530000
C       -0.09210000      -2.20080000       0.53010000
O       -0.84310000      -0.95260000       0.62890000
C        0.03090000      -0.05030000      -0.01650000
C        0.43320000      -0.80650000      -1.29310000
H       -0.50020000       1.94240000       0.79180000
H       -0.27590000       1.97130000      -0.99300000
H        1.27090000       0.19610000       1.79860000
H        2.99470000      -0.81660000      -0.44930000
H        2.66550000      -1.61190000       1.10120000
H        1.43630000      -2.81410000      -0.96970000
H       -0.76550000      -2.97300000       0.14480000
H        0.25380000      -2.50150000       1.52690000
H        1.13600000      -0.26690000      -1.92980000
H       -0.44260000      -1.11880000      -1.86670000
