18
Properties=species:S:1:pos:R:3 gdb_95131=T pbc="F F F"
O        0.08890000       1.47700000       0.15340000
C        0.04710000       0.06360000       0.03500000
C        0.69050000      -0.70130000       1.21450000
C       -0.18000000      -1.96500000       1.35670000
N       -1.53250000      -1.66030000       0.83380000
C       -2.10430000      -0.42850000       1.35370000
C       -1.39770000      -0.40260000       0.03710000
C       -2.19690000      -0.30570000      -1.22100000
O       -3.36560000      -0.58510000      -1.30460000
H        1.00100000       1.76280000       0.04010000
H        0.50850000      -0.24770000      -0.91670000
H        1.74370000      -0.93790000       1.04290000
H        0.63800000      -0.06540000       2.10290000
H        0.21740000      -2.78560000       0.75080000
H       -0.25750000      -2.32340000       2.38770000
H       -3.18890000      -0.39850000       1.32860000
H       -1.63300000       0.07930000       2.19080000
H       -1.62590000       0.06100000      -2.10410000
