18
Properties=species:S:1:pos:R:3 gdb_14732=T pbc="F F F"
O       -0.08130000       1.39560000      -0.42880000
C        0.00360000       0.02870000      -0.05970000
C       -1.40490000      -0.54980000      -0.08830000
C       -1.43050000      -2.03780000       0.30920000
C       -2.76810000      -2.61700000       0.28230000
C       -3.87930000      -3.07830000       0.24550000
C       -5.22660000      -3.63200000       0.22580000
O       -5.38810000      -4.46500000      -0.91760000
H        0.80610000       1.76590000      -0.42050000
H        0.65100000      -0.53370000      -0.75310000
H        0.43330000      -0.08690000       0.94970000
H       -2.04090000       0.02670000       0.59120000
H       -1.82170000      -0.42800000      -1.09320000
H       -0.77940000      -2.61010000      -0.36570000
H       -1.00040000      -2.15830000       1.31300000
H       -5.39810000      -4.19860000       1.15610000
H       -5.95580000      -2.80520000       0.22000000
H       -6.28870000      -4.80450000      -0.89810000
