17
Properties=species:S:1:pos:R:3 gdb_46370=T pbc="F F F"
O       -0.11010000       0.11830000       0.25890000
C       -0.08550000       1.27790000      -0.00100000
O       -1.08690000       2.04520000      -0.53580000
C       -0.25460000       3.25350000      -0.49260000
C        0.90760000       2.44370000       0.11030000
C        1.35980000       2.77490000       1.52050000
C        2.44230000       1.87200000       2.15130000
C        3.26680000       3.17220000       2.24040000
O        2.23620000       3.92250000       1.55450000
H       -0.10150000       3.65270000      -1.49630000
H       -0.70250000       4.00670000       0.15880000
H        1.77360000       2.33220000      -0.54700000
H        0.48190000       2.93510000       2.16320000
H        2.17390000       1.40180000       3.09710000
H        2.84260000       1.11350000       1.47680000
H        3.43420000       3.55150000       3.25560000
H        4.21590000       3.19040000       1.69340000
