19
Properties=species:S:1:pos:R:3 gdb_61674=T pbc="F F F"
O        0.08800000       1.44540000      -0.15360000
C        0.04400000       0.05770000       0.07850000
C        0.62570000      -0.70620000      -1.13470000
N       -0.02270000      -0.21590000      -2.33220000
C       -1.32840000      -0.78440000      -2.75140000
C       -0.86870000      -0.66730000      -4.22390000
C        0.56480000      -0.52920000      -3.65600000
C        0.80020000      -0.26440000       1.29780000
N        1.39010000      -0.56140000       2.24530000
H       -0.02790000       1.51680000      -1.11650000
H       -0.99320000      -0.28150000       0.24360000
H        1.69470000      -0.48000000      -1.20480000
H        0.51270000      -1.79400000      -0.98850000
H       -1.45290000      -1.83090000      -2.43190000
H       -2.20510000      -0.21130000      -2.43610000
H       -1.06500000      -1.51910000      -4.87430000
H       -1.22170000       0.24670000      -4.70380000
H        1.21420000       0.25150000      -4.06290000
H        1.10840000      -1.48560000      -3.66420000
