18
Properties=species:S:1:pos:R:3 gdb_37649=T pbc="F F F"
C       -0.04600000       1.55170000      -0.08100000
C        1.50780000       1.48680000       0.02240000
C        2.10470000       1.19290000      -1.34020000
C        2.68850000      -0.15660000      -1.45290000
C        1.96070000      -0.94850000      -0.35370000
C        1.39720000       0.06740000       0.69000000
C       -0.03280000       0.01770000       0.05150000
C        0.64960000      -0.71980000      -1.14680000
N        1.37890000       0.16670000      -2.14960000
H       -0.49630000       2.01640000       0.80050000
H       -0.46930000       1.99760000      -0.98570000
H        2.03120000       2.28630000       0.55050000
H        2.47610000       2.00950000      -1.95190000
H        3.58270000      -0.42450000      -2.00470000
H        2.31400000      -1.92460000      -0.02840000
H        1.60010000      -0.02470000       1.75670000
H       -0.87960000      -0.50960000       0.49430000
H        0.10610000      -1.50960000      -1.66560000
