22
Properties=species:S:1:pos:R:3 gdb_89066=T pbc="F F F"
C       -0.23550000       1.37710000      -0.04890000
N        0.05710000      -0.04090000       0.08590000
C        1.43010000      -0.46980000      -0.15410000
C        0.84900000      -0.53540000       1.21740000
C        1.36980000       0.33530000       2.34270000
C        0.32940000       0.56750000       3.45120000
C        0.89860000       1.34160000       4.61450000
C        0.54020000       1.05370000       6.00810000
O        1.79490000       0.62760000       5.47360000
H        0.58450000       2.05280000       0.24280000
H       -0.47360000       1.58340000      -1.09760000
H       -1.11770000       1.62840000       0.54980000
H        1.55850000      -1.36590000      -0.75630000
H        2.17900000       0.30330000      -0.33000000
H        0.49830000      -1.50910000       1.56220000
H        2.24230000      -0.16060000       2.78570000
H        1.72790000       1.29670000       1.95880000
H       -0.53560000       1.10950000       3.04840000
H       -0.04030000      -0.39860000       3.81510000
H        1.23580000       2.35450000       4.38200000
H        0.59380000       1.84060000       6.75940000
H       -0.17070000       0.25650000       6.22340000
