18
Properties=species:S:1:pos:R:3 gdb_12520=T pbc="F F F"
C       -0.37680000       1.52480000       0.01400000
C       -0.03150000       0.02080000       0.00250000
C        0.72520000      -0.39530000      -1.24020000
C        1.98420000      -0.02680000      -1.54810000
C        2.92640000       0.66470000      -0.70170000
C        2.93960000       0.65730000       0.65580000
C        2.01410000      -0.04340000       1.51280000
C        0.74930000      -0.40870000       1.22560000
H        0.52870000       2.13530000       0.00850000
H       -0.97210000       1.78650000      -0.86710000
H       -0.95480000       1.77680000       0.90940000
H       -0.97990000      -0.52720000       0.00880000
H        0.18540000      -1.01270000      -1.95460000
H        2.35780000      -0.30110000      -2.53320000
H        3.76230000       1.14240000      -1.20750000
H        3.78530000       1.12960000       1.15030000
H        2.40680000      -0.32840000       2.48740000
H        0.22340000      -1.03390000       1.94360000
