20
Properties=species:S:1:pos:R:3 gdb_80025=T pbc="F F F"
C        0.06610000       1.42290000      -0.40270000
N        0.03720000       0.00450000      -0.05840000
C       -1.11640000      -0.44540000       0.83740000
C       -0.76750000      -1.93700000       0.92400000
C        0.54890000      -1.90910000       1.14940000
C        0.84500000      -0.40370000       1.17310000
C       -0.32760000       0.09140000       2.06220000
C       -0.48770000       1.35720000       2.84080000
C       -0.57690000       0.00410000       3.52990000
H        1.03530000       1.64660000      -0.86230000
H       -0.70340000       1.60960000      -1.16010000
H       -0.09090000       2.12800000       0.42610000
H       -2.12800000      -0.13120000       0.57840000
H       -1.44700000      -2.76850000       0.81110000
H        1.26100000      -2.71110000       1.27470000
H        1.87130000      -0.04640000       1.26290000
H        0.39030000       1.96760000       3.02950000
H       -1.40280000       1.92960000       2.72260000
H       -1.55210000      -0.33090000       3.86870000
H        0.24310000      -0.29280000       4.17600000
