23
Properties=species:S:1:pos:R:3 gdb_104303=T pbc="F F F"
C        0.13790000       1.52300000      -0.08780000
C       -0.03050000       0.00260000       0.00730000
C       -1.48640000      -0.50510000       0.04860000
C       -2.21510000      -0.04990000       1.32590000
C       -2.29320000      -0.11860000      -1.23080000
C       -3.28090000      -1.28060000      -1.49900000
C       -2.58310000      -2.48640000      -0.90480000
O       -1.19830000      -2.58660000      -1.27770000
C       -1.52620000      -2.03070000       0.00270000
H        1.19820000       1.78850000      -0.14470000
H       -0.35010000       1.92740000      -0.98060000
H       -0.28060000       2.03790000       0.78270000
H        0.46080000      -0.47150000      -0.85040000
H        0.49350000      -0.36100000       0.90180000
H       -2.27560000       1.04070000       1.38350000
H       -3.23870000      -0.43810000       1.36140000
H       -1.69680000      -0.40290000       2.22500000
H       -2.80410000       0.84140000      -1.12040000
H       -1.60660000      -0.02790000      -2.07580000
H       -4.23560000      -1.13160000      -0.97980000
H       -3.50590000      -1.40040000      -2.56350000
H       -3.09960000      -3.43560000      -0.78380000
H       -1.18930000      -2.60920000       0.86150000
