20
Properties=species:S:1:pos:R:3 gdb_83792=T pbc="F F F"
C       -0.03920000       1.59830000      -0.10520000
C        0.07140000       0.08970000      -0.01340000
C        1.31100000      -0.74640000      -0.23300000
O        2.60220000      -0.21950000      -0.34010000
C        3.07910000       0.65250000       0.68700000
C        2.69910000       0.21090000       2.08890000
C        1.57940000       0.89080000       2.81340000
N        1.40590000      -0.44610000       2.27290000
C        0.62750000      -0.79540000       1.11490000
H        0.85620000       2.13190000       0.20740000
H       -0.23250000       1.88760000      -1.14410000
H       -0.87630000       1.96620000       0.49900000
H       -0.80990000      -0.38880000      -0.43930000
H        1.24580000      -1.60520000      -0.89320000
H        4.16690000       0.63860000       0.57990000
H        2.75080000       1.68020000       0.48850000
H        3.50240000      -0.24130000       2.66660000
H        1.58770000       0.94440000       3.89940000
H        1.10450000       1.73590000       2.32460000
H        0.01350000      -1.66710000       1.32400000
