17
Properties=species:S:1:pos:R:3 gdb_19914=T pbc="F F F"
C        0.17900000       1.00800000      -0.34290000
O       -0.18380000       0.10170000       0.67580000
C       -1.29400000      -0.66230000       0.36290000
C       -1.50250000      -1.65480000      -0.76290000
C       -0.34670000      -2.65170000      -1.03820000
N        0.83530000      -2.28420000      -0.22100000
C       -0.29760000      -3.04420000       0.37910000
C       -1.47670000      -2.09370000       0.72970000
H        1.01350000       1.60000000       0.04020000
H        0.50040000       0.47860000      -1.24960000
H       -0.64810000       1.68750000      -0.60280000
H       -2.22970000      -0.10770000       0.50810000
H       -2.36160000      -1.58020000      -1.41900000
H       -0.25730000      -3.24920000      -1.93610000
H        1.55400000      -2.97920000      -0.43070000
H       -0.14420000      -4.01470000       0.83160000
H       -2.30420000      -2.43080000       1.34260000
