18
Properties=species:S:1:pos:R:3 gdb_85814=T pbc="F F F"
C       -0.16300000       1.46080000       0.03370000
C        0.01350000      -0.05210000      -0.05510000
C        1.18390000      -0.52190000      -0.96450000
O        1.57020000       0.42750000      -1.92570000
C        2.07690000      -0.70380000       0.29370000
C        0.78070000      -0.67280000       1.16670000
O        0.76770000       0.14390000       2.31210000
C        0.30740000      -2.02720000       1.49240000
N       -0.04340000      -3.09540000       1.76300000
H        0.77510000       1.97450000       0.25250000
H       -0.53670000       1.83830000      -0.92130000
H       -0.87930000       1.71380000       0.81890000
H       -0.94700000      -0.52790000      -0.26360000
H        0.95500000      -1.48890000      -1.43070000
H        2.25130000       0.03990000      -2.48380000
H        2.72130000      -1.58190000       0.36330000
H        2.65080000       0.20520000       0.48880000
H        1.28570000      -0.28350000       3.00360000
