21
Properties=species:S:1:pos:R:3 gdb_121033=T pbc="F F F"
C       -0.13350000       1.47280000      -0.34240000
C       -0.05340000      -0.03460000      -0.08870000
C       -1.43290000      -0.68810000       0.04610000
C       -1.37800000      -2.19500000       0.29320000
C       -2.76070000      -2.88390000       0.33890000
C       -2.94140000      -3.38830000      -1.09510000
C       -1.51530000      -3.51330000      -1.62170000
O       -1.13100000      -4.08120000      -2.60180000
O       -0.67070000      -2.84780000      -0.78750000
H        0.86410000       1.91340000      -0.43060000
H       -0.67540000       1.69010000      -1.26960000
H       -0.65440000       1.98780000       0.47270000
H        0.49260000      -0.52320000      -0.90230000
H        0.52420000      -0.22460000       0.82570000
H       -1.98110000      -0.23310000       0.88220000
H       -2.02720000      -0.49290000      -0.85740000
H       -0.79520000      -2.39680000       1.19750000
H       -2.73860000      -3.72410000       1.03840000
H       -3.54510000      -2.19780000       0.66510000
H       -3.45770000      -4.34490000      -1.18400000
H       -3.47330000      -2.67210000      -1.73070000
