19
Properties=species:S:1:pos:R:3 gdb_114876=T pbc="F F F"
O        0.02850000       1.22540000       0.53900000
C        0.01490000      -0.16810000       0.30540000
C       -1.36830000      -0.62990000      -0.15970000
C       -1.54020000      -2.15830000      -0.21500000
C       -2.17870000      -2.50110000       1.12500000
O       -1.24430000      -2.54660000       2.23150000
C       -1.88260000      -1.41940000       2.87670000
C       -2.77940000      -1.17700000       1.64570000
O       -2.37410000      -0.14960000       0.76280000
H       -0.78340000       1.41350000       1.02630000
H        0.74910000      -0.37410000      -0.48230000
H        0.31680000      -0.74010000       1.19580000
H       -1.59260000      -0.14640000      -1.11590000
H       -2.21510000      -2.44520000      -1.02710000
H       -0.59280000      -2.68640000      -0.35250000
H       -2.81530000      -3.39090000       1.10140000
H       -2.42470000      -1.72710000       3.77980000
H       -1.17890000      -0.61700000       3.12190000
H       -3.85290000      -1.08370000       1.81900000
