16
Properties=species:S:1:pos:R:3 gdb_26967=T pbc="F F F"
O       -0.43280000       1.32990000       0.36860000
C       -0.11840000       0.03930000       0.08910000
C        0.26510000      -0.61490000      -1.06480000
C        0.46190000      -1.98710000      -0.68960000
C        0.20820000      -2.10440000       0.64800000
N       -0.14540000      -0.85100000       1.11920000
C        0.42570000       0.00060000      -2.38980000
C        1.29170000      -0.54130000      -3.44910000
O       -0.12490000      -0.68380000      -3.53460000
H       -0.57640000       1.79960000      -0.45870000
H        0.74290000      -2.79000000      -1.35320000
H        0.23930000      -2.95330000       1.30990000
H       -0.40340000      -0.61290000       2.06080000
H        0.25470000       1.08040000      -2.42270000
H        1.74470000       0.13000000      -4.17910000
H        1.84700000      -1.45910000      -3.26000000
