20
Properties=species:S:1:pos:R:3 gdb_83752=T pbc="F F F"
C       -0.02810000       1.53180000       0.03680000
C       -0.05810000       0.03420000       0.02720000
C        0.09100000      -0.99430000       1.10770000
C       -0.75400000      -2.00330000       0.28030000
C        0.28300000      -2.89640000      -0.40420000
C        1.42200000      -1.88310000      -0.69360000
N        1.19600000      -0.72050000       0.19660000
C       -1.14370000      -0.81360000      -0.65710000
O       -2.39740000      -0.23150000      -0.35660000
H        0.69620000       1.89350000       0.77100000
H        0.26330000       1.92300000      -0.94540000
H       -1.01690000       1.92950000       0.28010000
H        0.21450000      -0.91120000       2.18130000
H       -1.59600000      -2.50840000       0.75460000
H        0.62150000      -3.69340000       0.26660000
H       -0.10200000      -3.36650000      -1.31530000
H        2.40920000      -2.29790000      -0.47150000
H        1.43270000      -1.55260000      -1.73700000
H       -1.04700000      -0.99290000      -1.74030000
H       -3.08520000      -0.83040000      -0.66380000
