16
Properties=species:S:1:pos:R:3 gdb_43882=T pbc="F F F"
O        0.03450000      -0.04170000       0.01710000
C       -0.04060000       1.15550000       0.02080000
C       -1.16490000       2.21660000       0.10150000
C       -0.02620000       3.26660000       0.01170000
C        0.06410000       4.39910000      -1.07340000
C        0.23010000       5.40920000       0.07020000
O       -0.91670000       5.26890000       0.91700000
C        0.16700000       4.34910000       1.08990000
N        0.91200000       2.15100000      -0.05690000
H       -1.85530000       2.20320000      -0.74330000
H       -1.72800000       2.21800000       1.03620000
H        0.96200000       4.28630000      -1.68710000
H       -0.80670000       4.55010000      -1.71540000
H        0.73950000       6.36520000       0.07600000
H        0.60930000       4.26100000       2.07640000
H        1.91710000       2.11340000      -0.14840000
