15
Properties=species:S:1:pos:R:3 gdb_125505=T pbc="F F F"
C       -0.05280000       1.48800000      -0.08530000
C       -0.01560000       0.00040000       0.00260000
N       -0.01610000      -0.79040000      -1.05030000
N        0.01130000      -2.03560000      -0.53530000
C        0.01540000      -3.14730000      -1.38750000
O        0.03990000      -4.28670000      -1.01940000
N        0.03950000      -2.09870000       0.81570000
C        0.01750000      -0.82940000       1.17460000
N       -0.04120000      -0.41930000       2.48880000
H        0.84600000       1.93900000       0.35260000
H       -0.11580000       1.80080000      -1.12880000
H       -0.91630000       1.89260000       0.45450000
H       -0.00610000      -2.79930000      -2.43300000
H        0.19120000      -1.14570000       3.15180000
H        0.42840000       0.45120000       2.68920000
