21
Properties=species:S:1:pos:R:3 gdb_56254=T pbc="F F F"
C       -0.01750000       1.44450000      -0.11690000
C       -0.18220000      -0.06180000      -0.02010000
O       -0.66410000      -0.59140000       0.95630000
C        0.29110000      -0.86960000      -1.21810000
C        0.05860000      -2.36450000      -1.06360000
O        0.56690000      -2.99860000      -2.22610000
C        0.41630000      -4.38280000      -2.20290000
C       -0.88750000      -4.99090000      -2.65580000
C        0.35140000      -5.06640000      -3.52850000
H        1.02920000       1.70590000      -0.30780000
H       -0.59970000       1.83550000      -0.95920000
H       -0.35320000       1.91380000       0.80850000
H       -0.21060000      -0.49950000      -2.12180000
H        1.35900000      -0.67120000      -1.37990000
H        0.56670000      -2.73700000      -0.16220000
H       -1.01180000      -2.57880000      -0.93810000
H        0.95090000      -4.87710000      -1.39020000
H       -1.24320000      -5.89190000      -2.16840000
H       -1.66550000      -4.30320000      -2.96820000
H        0.37880000      -4.42460000      -4.40160000
H        0.85530000      -6.01900000      -3.64610000
