18
Properties=species:S:1:pos:R:3 gdb_113032=T pbc="F F F"
C        0.23050000       1.35090000       0.17560000
O        0.05780000      -0.01830000      -0.11440000
C       -1.28550000      -0.46370000      -0.03190000
C       -1.38700000      -1.83470000      -0.73290000
C       -2.31540000      -2.70970000       0.16180000
C       -2.31780000      -1.95750000       1.48590000
C       -1.76500000      -0.75460000       1.37560000
C       -3.67280000      -2.84140000      -0.38090000
N       -4.74400000      -2.94310000      -0.80400000
H        1.28710000       1.58110000       0.02030000
H       -0.37420000       1.98570000      -0.49060000
H       -0.03080000       1.59740000       1.21550000
H       -1.93880000       0.28680000      -0.50870000
H       -1.73650000      -1.76610000      -1.76320000
H       -0.38370000      -2.26700000      -0.73890000
H       -1.92010000      -3.72610000       0.27500000
H       -2.76310000      -2.38290000       2.37720000
H       -1.67490000      -0.03590000       2.18180000
