16
Properties=species:S:1:pos:R:3 gdb_9950=T pbc="F F F"
C       -0.16550000       1.38190000      -0.06330000
C        0.10890000      -0.10050000       0.02670000
C        1.47770000      -0.66720000      -0.11540000
O        2.53830000       0.23730000      -0.23200000
C        0.80100000      -0.68080000       1.27020000
O        1.32580000       0.17940000       2.22800000
C        0.34090000      -1.98380000       1.79090000
O       -0.19990000      -2.82770000       1.11110000
H        0.59990000       1.96550000       0.45010000
H       -0.19580000       1.70550000      -1.10840000
H       -1.13080000       1.61730000       0.39420000
H       -0.66780000      -0.75850000      -0.35440000
H        1.60080000      -1.62140000      -0.62140000
H        3.36190000      -0.25840000      -0.16940000
H        2.12020000       0.57220000       1.83830000
H        0.54930000      -2.13480000       2.87190000
