19
Properties=species:S:1:pos:R:3 gdb_9356=T pbc="F F F"
C        1.00500000       0.73240000      -1.03800000
C        0.31740000      -0.20300000      -0.04700000
O        0.52870000      -1.58750000      -0.30450000
C       -0.16610000      -2.10840000      -1.42370000
C        0.71850000      -2.40190000      -2.64210000
O        0.22170000      -2.69350000      -3.71620000
N        2.04900000      -2.34320000      -2.38690000
C        3.05400000      -2.64710000      -3.38280000
H        2.08670000       0.56900000      -1.04750000
H        0.62920000       0.59290000      -2.05600000
H        0.81930000       1.77310000      -0.75240000
H        0.70810000      -0.03820000       0.96220000
H       -0.76310000       0.00360000      -0.01850000
H       -0.62490000      -3.05930000      -1.12510000
H       -0.97630000      -1.44720000      -1.75240000
H        2.31020000      -2.10650000      -1.44240000
H        3.71780000      -1.79240000      -3.55570000
H        3.66470000      -3.50720000      -3.08540000
H        2.53180000      -2.88630000      -4.31040000
