21
Properties=species:S:1:pos:R:3 gdb_75459=T pbc="F F F"
C       -0.08870000       1.48000000       0.06850000
C        0.00260000      -0.01300000      -0.00440000
C       -0.03510000      -0.77450000      -1.10020000
C        0.05440000      -2.25000000      -0.80810000
C        0.42330000      -2.28210000       0.69660000
C        0.09160000      -0.87070000       1.26690000
C        1.10320000      -0.36660000       2.30000000
C       -1.31860000      -0.87220000       1.85250000
O       -1.66400000      -0.28300000       2.84470000
H        0.82320000       1.91590000       0.49380000
H       -0.24160000       1.91660000      -0.92180000
H       -0.91450000       1.79770000       0.71680000
H       -0.13110000      -0.38390000      -2.10850000
H       -0.90130000      -2.75230000      -1.01020000
H        0.79940000      -2.76070000      -1.42930000
H       -0.08890000      -3.08180000       1.24140000
H        1.49700000      -2.45450000       0.81590000
H        2.09150000      -0.25290000       1.84440000
H        0.79420000       0.59240000       2.72150000
H        1.18760000      -1.07350000       3.13130000
H       -2.05320000      -1.45540000       1.24900000
