16
Properties=species:S:1:pos:R:3 gdb_98918=T pbc="F F F"
C       -0.53580000       1.14610000      -0.63610000
N       -1.03580000      -0.12770000      -0.15510000
C       -0.48150000      -0.77340000       0.89670000
O        0.46960000      -0.37300000       1.54010000
C       -1.13420000      -2.12270000       1.28330000
C       -2.26500000      -2.56110000       0.48790000
C       -3.20270000      -2.88050000      -0.20570000
C       -4.31950000      -3.26010000      -1.03230000
O       -4.73100000      -2.59520000      -1.95590000
H       -0.20020000       1.07060000      -1.67580000
H       -1.30650000       1.92160000      -0.57190000
H        0.30880000       1.42700000      -0.00620000
H       -1.82450000      -0.55360000      -0.61670000
H       -0.33600000      -2.87360000       1.25450000
H       -1.42190000      -2.03810000       2.33770000
H       -4.78770000      -4.22630000      -0.75820000
