17
Properties=species:S:1:pos:R:3 gdb_105288=T pbc="F F F"
O        0.05080000       1.43040000      -0.40170000
C        0.02880000       0.11100000       0.09840000
C       -1.37490000      -0.49490000       0.03380000
C       -1.83170000      -1.18020000      -1.22270000
C       -1.58190000      -2.02880000       0.00790000
C       -0.42780000      -2.96090000       0.04170000
O       -0.41240000      -3.98430000       0.67900000
C       -2.34110000       0.25480000       0.79350000
C       -3.10410000       0.92600000       1.43840000
H       -0.57110000       1.94800000       0.12330000
H        0.71790000      -0.46020000      -0.52840000
H        0.39550000       0.06130000       1.13450000
H       -2.85920000      -1.05600000      -1.54130000
H       -1.10660000      -1.24690000      -2.02780000
H       -2.44410000      -2.38790000       0.55790000
H        0.43970000      -2.66820000      -0.59180000
H       -3.79420000       1.49820000       2.00830000
