21
Properties=species:S:1:pos:R:3 gdb_108541=T pbc="F F F"
O       -0.09350000       1.41720000       0.27820000
C       -0.00880000       0.02950000      -0.03680000
C       -1.40940000      -0.53260000      -0.00900000
C       -2.39850000       0.06600000      -1.01990000
C       -3.67420000      -0.74790000      -0.68340000
C       -3.12550000      -1.62290000       0.43980000
C       -1.67000000      -2.07890000       0.08930000
C       -1.33430000      -2.04870000       1.60000000
C       -2.17360000      -0.77470000       1.34500000
H        0.79050000       1.79110000       0.22040000
H        0.41840000      -0.11970000      -1.04270000
H        0.64620000      -0.49340000       0.67460000
H       -2.51740000       1.14150000      -0.86840000
H       -2.05900000      -0.08430000      -2.05100000
H       -4.50320000      -0.11760000      -0.34600000
H       -4.03690000      -1.34040000      -1.52970000
H       -3.78950000      -2.34530000       0.91930000
H       -1.38450000      -2.83380000      -0.64810000
H       -1.80630000      -2.82220000       2.21280000
H       -0.28870000      -1.92170000       1.88890000
H       -2.46780000      -0.00840000       2.06450000
