14
Properties=species:S:1:pos:R:3 gdb_27857=T pbc="F F F"
N        0.03930000       1.35520000      -0.10800000
C       -0.01520000      -0.00270000      -0.03730000
C       -1.20830000      -0.69720000      -0.01880000
C       -1.21910000      -2.11080000       0.00740000
O       -2.11270000      -2.90840000       0.02000000
O        0.12740000      -2.68970000       0.02190000
C        1.19810000      -1.90650000       0.01490000
N        2.35570000      -2.60320000       0.07670000
N        1.21270000      -0.60530000      -0.01920000
H        0.92990000       1.78130000       0.08720000
H       -0.78660000       1.89350000       0.08870000
H       -2.16570000      -0.19500000      -0.03510000
H        2.32840000      -3.59520000      -0.08380000
H        3.20920000      -2.10010000      -0.09340000
