17
Properties=species:S:1:pos:R:3 gdb_87658=T pbc="F F F"
O       -0.66340000       1.40460000      -0.12710000
C       -0.26540000       0.06350000      -0.17360000
C       -0.16350000      -0.71860000       1.13270000
C       -1.32340000      -0.90820000       0.20780000
N       -2.71130000      -0.52630000       0.46830000
C       -3.18910000      -1.40970000      -0.50370000
N       -4.23830000      -1.57100000      -1.18920000
C       -1.83340000      -2.11610000      -0.61110000
O       -1.33450000      -2.30480000      -1.90440000
H        0.08260000       1.93100000       0.17870000
H        0.40150000      -0.20540000      -0.99180000
H        0.57890000      -1.50690000       1.21040000
H       -0.34640000      -0.16230000       2.04710000
H       -2.99400000       0.44410000       0.53840000
H       -4.94760000      -0.86450000      -0.98680000
H       -1.77670000      -3.05330000      -0.04510000
H       -2.03760000      -2.05340000      -2.51550000
