17
Properties=species:S:1:pos:R:3 gdb_13324=T pbc="F F F"
O        1.91610000       4.15560000      -0.04390000
C        1.07120000       3.31150000       0.14970000
N        1.24850000       1.95320000       0.11680000
C        2.42300000       1.23590000      -0.13950000
C        2.50070000      -0.09970000      -0.17850000
C        3.88750000      -0.56870000      -0.53790000
C        4.74150000       0.71870000      -0.39350000
C        3.74420000       1.90290000      -0.45210000
H        0.01610000       3.55790000       0.38310000
H        0.42210000       1.40100000       0.29510000
H        1.66570000      -0.77520000      -0.02450000
H        4.24700000      -1.37750000       0.10880000
H        3.91540000      -0.96470000      -1.56380000
H        5.23940000       0.71500000       0.58100000
H        5.52280000       0.79460000      -1.15340000
H        3.70360000       2.37140000      -1.44310000
H        3.98560000       2.70540000       0.24630000
