14
Properties=species:S:1:pos:R:3 gdb_48322=T pbc="F F F"
O       -0.35200000       0.41470000      -0.82930000
C        0.23190000       0.80710000       0.14690000
C        1.33380000       1.82150000       0.10080000
C        1.79020000       2.20080000      -1.21080000
N        2.19090000       2.52370000      -2.24590000
C        1.47760000       2.97660000       1.13320000
C        1.05320000       2.50330000       2.51790000
O        1.94770000       1.35290000       2.41450000
C        2.43810000       1.84190000       1.17940000
H        0.00880000       0.42280000       1.15890000
H        1.58270000       3.99350000       0.78390000
H        1.39930000       3.17590000       3.30830000
H        0.01230000       2.22030000       2.69340000
H        3.48530000       1.71970000       0.93260000
