15
Properties=species:S:1:pos:R:3 gdb_34900=T pbc="F F F"
C       -0.22670000      -1.26290000      -0.00180000
C       -0.12850000      -0.06610000       0.03260000
C       -0.01450000       1.37470000       0.05560000
C       -0.27070000       2.11830000       1.38200000
N        0.77640000       1.67990000       2.32210000
C        1.07200000       2.75340000       1.35560000
C        1.43750000       2.05520000       0.03400000
C        2.61500000       1.20320000       0.02760000
N        3.56530000       0.54620000       0.00430000
H       -0.29930000      -2.32230000      -0.01960000
H       -0.60330000       1.81900000      -0.75190000
H       -1.22230000       2.50090000       1.72680000
H        0.59050000       2.11710000       3.22350000
H        1.39820000       3.73560000       1.67040000
H        1.49750000       2.75940000      -0.79870000
