23
Properties=species:S:1:pos:R:3 gdb_79240=T pbc="F F F"
C        0.00360000       1.60310000       0.02060000
C        0.08940000       0.08100000       0.04410000
C        1.11310000      -0.67010000      -0.80380000
C        2.40500000      -0.80480000       0.02730000
C        2.15760000      -0.14140000       1.37740000
C        0.70300000      -0.68350000       1.26620000
C       -0.12130000      -0.95920000       2.49710000
C        1.25570000      -1.76550000       0.22390000
C        1.14470000      -3.25240000       0.14510000
H        0.98380000       2.07400000       0.13480000
H       -0.41540000       1.94930000      -0.93100000
H       -0.64740000       1.97690000       0.81980000
H       -0.90450000      -0.34350000      -0.14830000
H        1.13840000      -0.77660000      -1.88230000
H        3.35320000      -1.00710000      -0.45620000
H        2.70280000      -0.65790000       2.17410000
H        2.30170000       0.93940000       1.48840000
H       -0.36490000      -0.02700000       3.02170000
H       -1.06680000      -1.45300000       2.24560000
H        0.41440000      -1.60240000       3.20430000
H        0.10060000      -3.57980000       0.07050000
H        1.67140000      -3.63190000      -0.73770000
H        1.58160000      -3.74190000       1.02390000
