20
Properties=species:S:1:pos:R:3 gdb_63823=T pbc="F F F"
C       -0.25210000       1.60970000      -0.04240000
C        0.01330000       0.11440000      -0.00320000
O       -1.20300000      -0.61910000      -0.14730000
C        1.14460000      -0.46780000      -0.92940000
C        1.76190000      -1.21040000       0.29270000
C        2.89280000      -0.50070000       1.07680000
N        2.68180000       0.95730000       0.93940000
C        1.89450000       0.19270000       1.94320000
C        0.72460000      -0.52180000       1.23120000
H        0.67170000       2.17270000       0.09720000
H       -0.68370000       1.89240000      -1.01190000
H       -0.96890000       1.88760000       0.73730000
H       -1.59120000      -0.36960000      -0.99360000
H        0.74600000      -1.13290000      -1.69920000
H        1.79880000       0.28000000      -1.37940000
H        1.83990000      -2.29560000       0.24860000
H        3.87730000      -0.88940000       1.30920000
H        3.43450000       1.41800000       1.44950000
H        1.94360000       0.47190000       2.98900000
H        0.07810000      -1.10340000       1.88740000
