20
Properties=species:S:1:pos:R:3 gdb_107932=T pbc="F F F"
C       -0.20410000       1.30830000      -0.29690000
C        0.14040000      -0.14200000      -0.15450000
C        0.64660000      -1.08700000      -1.23380000
C        0.11500000      -2.19610000      -0.30310000
C       -0.52770000      -3.44710000      -0.83670000
O       -1.59400000      -3.13110000      -1.71420000
C        1.01600000      -2.15900000       0.94940000
C        0.37600000      -0.80150000       1.17200000
N       -0.84980000      -1.15100000       0.36620000
H        0.70170000       1.91800000      -0.39020000
H       -0.82100000       1.47910000      -1.18540000
H       -0.76290000       1.66210000       0.57510000
H        0.03440000      -1.01480000      -2.13630000
H        1.71000000      -1.09190000      -1.49640000
H        0.19540000      -4.03660000      -1.41290000
H       -0.87100000      -4.07040000       0.00480000
H       -2.16400000      -2.52070000      -1.22930000
H        0.68600000      -2.87880000       1.70400000
H        2.10000000      -2.23040000       0.81360000
H        0.28960000      -0.25180000       2.10330000
