18
Properties=species:S:1:pos:R:3 gdb_113645=T pbc="F F F"
C       -0.59810000       1.52610000       0.29190000
C       -0.04160000       0.18560000      -0.20420000
C        0.90900000      -0.42010000       0.80150000
N        0.32700000      -1.14470000       1.91990000
C        1.14610000      -1.90640000       0.95260000
C        0.44600000      -2.90720000       0.10650000
O       -0.72620000      -2.89640000      -0.19860000
C        1.31180000      -4.05020000      -0.44530000
O        2.48430000      -4.18440000      -0.21090000
H        0.20240000       2.25350000       0.46860000
H       -1.28500000       1.95870000      -0.44110000
H       -1.14460000       1.39060000       1.23010000
H       -0.85880000      -0.51570000      -0.38640000
H        0.49010000       0.32740000      -1.15360000
H        1.79670000       0.18050000       1.00630000
H        0.86610000      -1.00640000       2.77100000
H        2.15050000      -2.20400000       1.23670000
H        0.72990000      -4.74750000      -1.08430000
