17
Properties=species:S:1:pos:R:3 gdb_65335=T pbc="F F F"
N       -0.27130000       1.67470000      -0.15340000
C        0.04370000       0.27690000      -0.04880000
C       -0.20700000      -0.36290000       1.28340000
C       -1.14780000      -0.66380000       0.12530000
C       -2.48520000      -0.14560000       0.10650000
N       -3.57350000       0.24470000       0.06680000
C        1.17230000      -0.23730000      -0.90280000
C        2.52810000      -0.43520000      -0.37060000
O        1.66170000      -1.54700000      -0.62280000
H        0.53300000       2.24490000       0.08840000
H       -0.55720000       1.92290000      -1.09570000
H        0.43300000      -1.18160000       1.58850000
H       -0.58220000       0.28330000       2.06640000
H       -1.04030000      -1.64580000      -0.32300000
H        1.06850000      -0.01470000      -1.96720000
H        3.38770000      -0.35780000      -1.03350000
H        2.72340000      -0.23020000       0.68070000
