16
Properties=species:S:1:pos:R:3 gdb_74200=T pbc="F F F"
C        0.04540000       1.47160000       0.15920000
C       -0.00010000      -0.01090000       0.01190000
C       -1.17860000      -0.72340000      -0.02960000
C       -1.15300000      -2.11030000      -0.16540000
N       -2.25410000      -2.92750000      -0.28630000
H       -3.09820000      -2.58240000       0.14450000
H       -2.07810000      -3.90470000      -0.10170000
O       -0.00450000      -2.73710000      -0.25260000
C        1.18870000      -2.08740000      -0.22740000
H        2.01930000      -2.77090000      -0.31860000
C        1.30670000      -0.68460000      -0.09190000
O        2.38020000      -0.05900000      -0.05910000
H        0.64000000       1.73140000       1.04250000
H        0.59470000       1.90370000      -0.68500000
H       -0.94730000       1.92200000       0.23000000
H       -2.14140000      -0.22660000       0.03650000
