18
Properties=species:S:1:pos:R:3 gdb_83678=T pbc="F F F"
O        0.48290000       1.09160000       0.56910000
C        0.06280000      -0.17270000       0.14730000
C       -1.45160000      -0.43540000      -0.05950000
C       -2.31470000       0.74950000      -0.53660000
C       -2.10160000       0.21330000      -1.97810000
N       -1.22450000      -0.90400000      -1.49050000
C        0.24470000      -0.55630000      -1.37440000
C        0.77140000       0.50960000      -2.20010000
C        1.21260000       1.44730000      -2.81490000
H        0.61640000       1.64320000      -0.21320000
H        0.52520000      -0.91020000       0.80980000
H       -1.91570000      -1.14770000       0.62760000
H       -3.34650000       0.74520000      -0.18120000
H       -1.87640000       1.72730000      -0.32320000
H       -3.00260000      -0.19550000      -2.44410000
H       -1.62070000       0.89050000      -2.68830000
H        0.84820000      -1.45860000      -1.51720000
H        1.61570000       2.24200000      -3.39390000
