15
Properties=species:S:1:pos:R:3 gdb_4934=T pbc="F F F"
C       -0.03880000       1.39580000       0.01950000
O       -0.01500000      -0.01920000      -0.00860000
C        0.63460000      -0.59800000       1.02550000
C        1.26510000      -0.03080000       2.09070000
O        1.78340000      -1.04180000       2.88750000
C        1.46400000      -2.21480000       2.30430000
N        1.96890000      -3.34410000       2.93160000
C        0.75580000      -2.02360000       1.15560000
H        0.97910000       1.80800000      -0.00690000
H       -0.58700000       1.72100000      -0.86590000
H       -0.54640000       1.76420000       0.92140000
H        1.43930000       0.97180000       2.43210000
H        2.06390000      -3.21960000       3.93160000
H        1.44190000      -4.18000000       2.72120000
H        0.36820000      -2.76920000       0.48190000
