17
Properties=species:S:1:pos:R:3 gdb_81207=T pbc="F F F"
O       -0.17690000       1.44180000      -0.10190000
C       -0.02050000       0.05680000       0.05320000
C        0.00760000      -0.57280000       1.46720000
C       -1.52210000      -0.15520000       1.59450000
C       -1.35010000      -0.74870000       0.15310000
C       -1.76900000      -1.59980000      -1.05900000
C       -0.48430000      -2.46440000      -0.69580000
O        0.17130000      -3.25140000      -1.30170000
C       -0.51810000      -1.88030000       0.76720000
H        0.69050000       1.85310000      -0.03700000
H        0.72400000      -0.34440000      -0.64820000
H        0.77380000      -0.47330000       2.23970000
H       -2.12410000      -0.74580000       2.28860000
H       -1.71840000       0.91270000       1.67890000
H       -2.67140000      -2.19930000      -0.89920000
H       -1.80590000      -1.14060000      -2.04950000
H       -1.06630000      -2.56810000       1.42000000
