23
Properties=species:S:1:pos:R:3 gdb_58634=T pbc="F F F"
C        0.07300000       1.49200000       0.20070000
C       -0.05020000      -0.00870000      -0.08940000
C       -1.52230000      -0.45220000      -0.09860000
C        0.66380000      -0.45140000      -1.37190000
C        0.73620000       0.43940000      -2.54000000
O        1.87020000       0.27430000      -1.68720000
C        0.74850000      -1.94550000      -1.53880000
C       -0.10030000      -2.68330000      -2.55330000
C        1.38890000      -2.58330000      -2.74110000
H        1.10770000       1.82680000       0.10430000
H       -0.54710000       2.08720000      -0.47900000
H       -0.27020000       1.70480000       1.21780000
H        0.45500000      -0.54240000       0.72930000
H       -2.06950000       0.03430000      -0.91440000
H       -1.62390000      -1.53290000      -0.22610000
H       -2.01130000      -0.17520000       0.84080000
H        0.83920000       0.02530000      -3.54220000
H        0.26350000       1.41910000      -2.50680000
H        0.90660000      -2.46570000      -0.59730000
H       -0.52940000      -3.63830000      -2.27040000
H       -0.73300000      -2.08610000      -3.20140000
H        1.77360000      -1.93690000      -3.52140000
H        1.99050000      -3.46940000      -2.57300000
