14
Properties=species:S:1:pos:R:3 gdb_130332=T pbc="F F F"
N        0.70580000       0.64210000      -1.13210000
C        0.25930000      -0.36030000      -0.31590000
N       -1.00500000      -0.66310000      -0.14340000
O       -1.03510000      -1.64420000       0.82810000
N        0.21950000      -1.97040000       1.23670000
C        1.03160000      -1.20500000       0.55980000
N        2.39790000      -1.26790000       0.82730000
C        3.44630000      -1.00230000      -0.01350000
N        3.32190000      -0.53610000      -1.19420000
H        1.63360000       0.45100000      -1.51140000
H        0.01780000       0.95880000      -1.80010000
H        2.61680000      -1.77470000       1.67150000
H        4.40230000      -1.23460000       0.46620000
H        4.23100000      -0.39440000      -1.62410000
