23
Properties=species:S:1:pos:R:3 gdb_106504=T pbc="F F F"
C        0.10100000       1.54960000       0.18170000
C       -0.09850000       0.04960000      -0.06720000
C        0.67650000      -0.48460000      -1.26410000
C        2.24210000      -0.43180000      -1.25560000
C        2.19270000      -1.71240000      -2.13740000
C        0.83820000      -2.03090000      -1.44150000
C        1.96120000      -1.33590000      -3.61120000
C        0.82700000      -0.34280000      -3.71780000
C        0.21540000       0.06450000      -2.60570000
H        1.15510000       1.78030000       0.36860000
H       -0.21880000       2.14900000      -0.67700000
H       -0.47310000       1.88410000       1.05120000
H        0.20850000      -0.50780000       0.82690000
H       -1.16760000      -0.16260000      -0.20720000
H        2.72420000       0.46080000      -1.66300000
H        2.64410000      -0.64900000      -0.26080000
H        3.00410000      -2.43670000      -2.03300000
H        0.99310000      -2.52950000      -0.47940000
H        0.06940000      -2.55820000      -2.01290000
H        2.87990000      -0.91700000      -4.04650000
H        1.73470000      -2.23530000      -4.20180000
H        0.53000000       0.01170000      -4.70080000
H       -0.61280000       0.76750000      -2.63200000
