18
Properties=species:S:1:pos:R:3 gdb_90311=T pbc="F F F"
C       -0.01080000       1.53700000      -0.15930000
C        0.02490000       0.01770000      -0.08350000
C        1.24410000      -0.64380000      -0.83950000
C        1.87930000      -0.73310000       0.52920000
C        2.83910000      -0.07470000       1.19400000
N        2.34160000       0.35130000       2.44020000
C        0.95760000       0.19680000       2.54500000
O        0.28550000       0.52180000       3.49610000
C        0.58090000      -0.58040000       1.27940000
H        0.96720000       1.96770000       0.08180000
H       -0.28120000       1.86690000      -1.16780000
H       -0.74260000       1.94790000       0.54260000
H       -0.94670000      -0.40450000      -0.35310000
H        0.97720000      -1.60990000      -1.27840000
H        1.74880000      -0.03380000      -1.59320000
H        3.80910000       0.26960000       0.86060000
H        2.88720000       0.75340000       3.18500000
H        0.03730000      -1.48530000       1.56250000
