18
Properties=species:S:1:pos:R:3 gdb_8218=T pbc="F F F"
C        0.94980000       0.76460000       0.00020000
C       -0.35770000       0.00270000       0.01430000
O       -1.14870000       0.06940000       0.92700000
C       -0.61590000      -0.92070000      -1.17770000
C       -0.08010000      -2.32320000      -0.89150000
C       -0.05830000      -3.34270000      -2.05210000
C        1.45960000      -3.39750000      -1.78740000
O        1.36590000      -2.35910000      -0.78780000
H        1.77210000       0.05790000      -0.15680000
H        0.96600000       1.46570000      -0.84300000
H        1.08070000       1.31140000       0.93470000
H       -1.69830000      -0.98790000      -1.32720000
H       -0.14510000      -0.53730000      -2.08930000
H       -0.54160000      -2.70360000       0.02930000
H       -0.61270000      -4.26720000      -1.88690000
H       -0.33770000      -2.92260000      -3.02040000
H        1.82380000      -4.33940000      -1.35920000
H        2.11440000      -3.10920000      -2.61740000
