10
Properties=species:S:1:pos:R:3 gdb_23849=T pbc="F F F"
F        0.05880000       0.03170000       0.00290000
C       -0.00610000       1.35300000       0.01040000
N       -1.18250000       1.85820000       0.02860000
O       -1.25330000       3.23940000       0.03640000
C       -0.14100000       4.08260000       0.02570000
O       -0.33630000       5.26560000       0.03500000
C        1.15950000       3.41740000       0.00550000
C        1.23360000       2.07670000      -0.00230000
H        2.02830000       4.06350000      -0.00250000
H        2.16700000       1.52590000      -0.01730000
