22
Properties=species:S:1:pos:R:3 gdb_9954=T pbc="F F F"
C       -0.26340000       1.00170000      -1.76290000
C       -0.06120000      -0.17570000      -0.83310000
C        1.30180000      -0.63020000      -0.34420000
C        2.59550000       0.05990000      -0.72410000
C        0.30260000      -0.03630000       0.63460000
C        0.53260000       1.32480000       1.26590000
C       -0.36470000      -1.01430000       1.57660000
O       -1.66420000      -0.52510000       1.89490000
H        0.45410000       1.80810000      -1.59480000
H       -0.16150000       0.69010000      -2.80870000
H       -1.26630000       1.42520000      -1.63990000
H       -0.75790000      -0.98610000      -1.03700000
H        1.41650000      -1.71060000      -0.27170000
H        2.48820000       1.14240000      -0.82070000
H        3.37290000      -0.12520000       0.02590000
H        2.96770000      -0.31780000      -1.68310000
H        0.92960000       2.06140000       0.56580000
H       -0.40930000       1.71130000       1.66500000
H        1.24140000       1.24910000       2.09990000
H       -0.42630000      -2.00570000       1.09990000
H        0.24380000      -1.12580000       2.48990000
H       -2.02660000      -1.07270000       2.59720000
