17
Properties=species:S:1:pos:R:3 gdb_37003=T pbc="F F F"
C       -0.06950000       1.52680000      -0.04380000
C        1.22020000       1.89430000      -0.02380000
C        1.95700000       0.57920000       0.05620000
C        3.37690000       0.07080000       0.11930000
C        3.22780000      -1.26090000       0.17500000
C        1.71610000      -1.49500000       0.14270000
C        1.10370000      -0.35460000       1.01780000
C       -0.05050000      -0.00150000       0.02550000
C        1.15700000      -0.43920000      -0.86440000
H       -0.94860000       2.15440000      -0.09700000
H        1.64950000       2.88550000      -0.05620000
H        4.28420000       0.65790000       0.11860000
H        3.99270000      -2.02320000       0.23090000
H        1.32690000      -2.51230000       0.17740000
H        1.08940000      -0.28570000       2.11150000
H       -0.99010000      -0.55340000       0.02370000
H        1.20470000      -0.46880000      -1.95890000
