19
Properties=species:S:1:pos:R:3 gdb_40343=T pbc="F F F"
C        0.50270000       1.55110000       0.17900000
N        1.22020000       0.35660000      -0.29430000
C       -0.19560000       0.23900000       0.10440000
C       -0.44140000      -0.58580000       1.29840000
C        0.35050000      -0.92590000       2.52500000
C       -0.79320000      -0.39960000       3.37310000
N       -1.72310000      -0.57470000       2.18600000
C       -1.73570000      -2.08530000       2.04320000
C       -0.27200000      -2.03770000       1.64850000
H        0.83440000       1.92620000       1.14260000
H        0.22580000       2.31680000      -0.54060000
H        1.28900000       0.37120000      -1.30820000
H       -0.93420000       0.13260000      -0.68900000
H        1.42230000      -0.85460000       2.65790000
H       -1.10210000      -0.94190000       4.27450000
H       -0.69680000       0.66500000       3.60200000
H       -2.04180000      -2.62270000       2.94830000
H       -2.39090000      -2.36490000       1.21370000
H        0.35080000      -2.77250000       1.15380000
