14
Properties=species:S:1:pos:R:3 gdb_45909=T pbc="F F F"
N       -0.20050000       1.39040000      -0.10700000
C       -0.02760000       0.17440000       0.17730000
C       -1.12010000      -0.84950000      -0.04470000
C       -1.22300000      -1.81940000       1.11980000
O       -2.24210000      -2.15230000       1.65950000
C        0.15450000      -2.39410000       1.54170000
O        0.26550000      -3.34350000       2.26890000
C        1.34210000      -1.68690000       0.89610000
O        1.13510000      -0.28150000       0.74020000
H        0.63970000       1.93350000       0.10210000
H       -2.06750000      -0.34480000      -0.22550000
H       -0.87250000      -1.44250000      -0.93940000
H        2.22310000      -1.80500000       1.52830000
H        1.55330000      -2.15880000      -0.07590000
