19
Properties=species:S:1:pos:R:3 gdb_103794=T pbc="F F F"
C       -0.03330000       1.37700000       0.00460000
C        0.00250000      -0.13460000      -0.03400000
O        1.06450000      -0.74470000      -0.04640000
C       -1.29410000      -0.84430000      -0.02540000
C       -1.38980000      -2.18280000      -0.77830000
C       -1.33040000      -2.21300000       0.70190000
O       -0.19610000      -2.66830000       1.35750000
C       -2.55110000      -2.55340000       1.52670000
O       -2.67030000      -3.94940000       1.71190000
H        0.98180000       1.77500000       0.01170000
H       -0.57980000       1.76560000      -0.86210000
H       -0.57070000       1.71700000       0.89730000
H       -2.18600000      -0.22830000       0.01700000
H       -2.32970000      -2.39170000      -1.27700000
H       -0.49560000      -2.47330000      -1.31980000
H        0.57670000      -2.29130000       0.89920000
H       -2.48280000      -2.02380000       2.49000000
H       -3.45950000      -2.21810000       1.01710000
H       -1.81480000      -4.25030000       2.04020000
