19
Properties=species:S:1:pos:R:3 gdb_39552=T pbc="F F F"
C       -0.02330000       1.56580000       0.09100000
C        1.35700000       2.15820000      -0.08460000
C        2.32100000       1.54740000      -0.77730000
C        2.09150000       0.26740000      -1.48570000
C        2.04100000      -1.12360000      -0.80660000
C        1.93920000      -1.18200000       0.67490000
C        0.83760000      -0.56930000       1.11110000
C        0.01590000       0.02390000      -0.02420000
C        0.77860000      -0.43430000      -1.28320000
H       -0.42730000       1.84880000       1.07030000
H       -0.71810000       1.98820000      -0.65030000
H        1.55000000       3.12330000       0.37660000
H        3.30380000       2.00360000      -0.86650000
H        2.50400000       0.22310000      -2.49090000
H        2.48900000      -1.94260000      -1.35870000
H        2.69680000      -1.63910000       1.30120000
H        0.56980000      -0.41830000       2.15160000
H       -1.01120000      -0.36190000      -0.02330000
H        0.22020000      -0.79160000      -2.14020000
