17
Properties=species:S:1:pos:R:3 gdb_36270=T pbc="F F F"
C        0.18640000      -1.21470000       0.83180000
C        0.02010000      -0.11160000       0.38480000
C       -0.21050000       1.22860000      -0.16250000
N        1.05250000       1.97670000      -0.24470000
C        1.57340000       2.79760000      -1.29160000
C        0.58770000       3.89260000      -1.84750000
N       -0.73370000       3.71870000      -1.19610000
C        0.36900000       4.41190000      -0.48600000
C        1.34910000       3.33000000       0.10420000
H        0.33820000      -2.18830000       1.22700000
H       -0.67070000       1.15200000      -1.15130000
H       -0.92910000       1.76620000       0.46190000
H        2.49380000       2.52050000      -1.79530000
H        0.69800000       4.42090000      -2.78500000
H       -1.34950000       4.44030000      -1.57020000
H        0.27260000       5.43110000      -0.13640000
H        2.06180000       3.54600000       0.89360000
