18
Properties=species:S:1:pos:R:3 gdb_104759=T pbc="F F F"
O        0.10440000       1.39670000      -0.21740000
C        0.04910000       0.09280000       0.36880000
C       -1.34510000      -0.48480000       0.22580000
C       -2.42880000       0.25550000       0.99050000
O       -2.68040000       1.53560000       0.44130000
N       -1.64010000      -0.90660000      -1.15260000
C       -1.54660000      -1.93620000      -0.08780000
C       -0.47090000      -2.88780000      -0.15820000
C        0.41120000      -3.70410000      -0.18940000
H       -0.07160000       1.27090000      -1.15850000
H        0.78690000      -0.57610000      -0.08710000
H        0.30780000       0.22490000       1.42400000
H       -3.37350000      -0.29950000       0.93980000
H       -2.14410000       0.31880000       2.05420000
H       -1.81410000       1.94730000       0.30690000
H       -2.61870000      -0.72520000      -1.36780000
H       -2.48570000      -2.35690000       0.26760000
H        1.19430000      -4.42070000      -0.22490000
