20
Properties=species:S:1:pos:R:3 gdb_108935=T pbc="F F F"
C        0.35850000       0.91080000       0.75910000
C       -0.36980000       0.36260000      -0.47910000
C        0.56920000      -0.15280000      -1.51990000
N        0.70370000       0.28150000      -2.70840000
C        1.72890000      -0.52960000      -3.32560000
C        1.60260000      -0.88160000      -4.78330000
C        2.65760000       0.10020000      -4.32740000
C        2.19220000      -1.52280000      -2.25210000
O        1.35860000      -1.19660000      -1.12130000
H        0.98040000       0.13850000       1.21840000
H        1.00360000       1.75300000       0.49110000
H       -0.36360000       1.25930000       1.50260000
H       -1.03310000      -0.45720000      -0.17740000
H       -0.98510000       1.13430000      -0.94630000
H        1.92080000      -1.87180000      -5.09500000
H        0.73840000      -0.49170000      -5.30850000
H        2.50360000       1.15050000      -4.54620000
H        3.69480000      -0.22120000      -4.32850000
H        2.02230000      -2.57150000      -2.51810000
H        3.24040000      -1.39530000      -1.95980000
