17
Properties=species:S:1:pos:R:3 gdb_39186=T pbc="F F F"
C        0.39450000       1.31820000      -0.75210000
O        1.27720000       2.22100000      -0.09890000
C        2.60550000       1.91730000       0.01880000
C        3.28460000       0.75770000       0.01180000
N        2.84760000      -0.56760000      -0.09470000
C        1.52520000      -0.89260000      -0.25990000
C        0.32740000      -0.01530000      -0.02320000
N       -0.48980000      -1.06960000      -0.72860000
C        0.74500000      -1.83980000      -0.81330000
H       -0.57820000       1.81700000      -0.75610000
H        0.71000000       1.14740000      -1.79030000
H        3.17200000       2.82130000       0.21000000
H        4.35490000       0.84140000       0.15880000
H        3.53010000      -1.22850000      -0.43100000
H        0.04290000       0.13230000       1.02410000
H       -1.18620000      -1.47500000      -0.10210000
H        0.87080000      -2.79300000      -1.30730000
