21
Properties=species:S:1:pos:R:3 gdb_102520=T pbc="F F F"
C       -0.03740000       1.22540000       0.27480000
O        0.17380000      -0.16900000       0.13320000
C        0.65380000      -0.59610000      -1.13390000
C        1.40930000      -1.90100000      -0.85870000
O        2.40290000      -1.71090000       0.12360000
C       -0.47740000      -0.78580000      -2.18970000
C       -1.72880000      -1.47510000      -1.60740000
C       -0.82990000       0.47180000      -2.84890000
C       -1.12450000       1.49890000      -3.40130000
H        0.86630000       1.79380000       0.01180000
H       -0.86480000       1.58150000      -0.34860000
H       -0.27650000       1.40240000       1.32660000
H        1.37510000       0.14060000      -1.51640000
H        0.69690000      -2.68720000      -0.56180000
H        1.91260000      -2.23220000      -1.77290000
H        1.95950000      -1.23580000       0.83770000
H       -0.05480000      -1.44370000      -2.96330000
H       -2.47810000      -1.61680000      -2.38970000
H       -1.47660000      -2.45310000      -1.18990000
H       -2.16680000      -0.86960000      -0.81190000
H       -1.37990000       2.40570000      -3.89140000
