21
Properties=species:S:1:pos:R:3 gdb_73690=T pbc="F F F"
O       -0.08740000       1.39530000       0.03070000
C        0.02970000      -0.02320000       0.00310000
C        0.71160000      -0.55380000      -1.27650000
C       -0.04570000      -1.84920000      -1.61250000
C       -1.50700000      -1.50350000      -1.26370000
C       -1.40510000      -0.63660000       0.00700000
C       -1.45890000      -1.41370000       1.34030000
O       -0.46130000      -0.84280000       2.17320000
C        0.63300000      -0.56880000       1.31890000
H        0.80070000       1.76790000       0.01790000
H        0.55670000       0.18720000      -2.06860000
H        1.79130000      -0.69920000      -1.16000000
H        0.08660000      -2.16610000      -2.65070000
H        0.31040000      -2.67090000      -0.97910000
H       -1.95140000      -0.92120000      -2.07840000
H       -2.13480000      -2.38940000      -1.12290000
H       -2.13210000       0.17700000       0.01640000
H       -2.41720000      -1.33090000       1.85900000
H       -1.25160000      -2.48500000       1.17000000
H        1.21530000      -1.48730000       1.12660000
H        1.28330000       0.15880000       1.81350000
