18
Properties=species:S:1:pos:R:3 gdb_85034=T pbc="F F F"
C       -0.05780000       1.39420000       0.11230000
N       -0.01400000      -0.04520000       0.06070000
C       -1.18210000      -0.89870000       0.01620000
C       -0.58330000      -2.29710000      -0.02660000
N       -1.27720000      -3.35990000      -0.07320000
N        0.78890000      -2.12060000      -0.00340000
C        1.76830000      -3.18070000      -0.02980000
C        1.15230000      -0.76020000       0.04950000
O        2.28780000      -0.33840000       0.07850000
H        0.97110000       1.75630000       0.13810000
H       -0.56210000       1.81010000      -0.76910000
H       -0.58400000       1.74580000       1.00870000
H       -1.82160000      -0.77860000       0.89980000
H       -1.80030000      -0.71530000      -0.87160000
H       -0.69030000      -4.19430000      -0.09590000
H        1.67740000      -3.77850000      -0.94380000
H        2.75260000      -2.71160000      -0.00120000
H        1.65610000      -3.84260000       0.83640000
