19
Properties=species:S:1:pos:R:3 gdb_105956=T pbc="F F F"
C       -0.00780000       1.48370000       0.06860000
C        0.00620000      -0.04400000      -0.06340000
C        0.69860000      -0.53090000      -1.29940000
C        0.67360000      -0.01470000      -2.73590000
C        0.90650000      -1.45450000      -3.27660000
C        2.24200000      -1.52080000      -2.51590000
C        1.99370000      -0.08390000      -1.97410000
C        0.94530000      -1.98480000      -1.86450000
O        0.53690000      -3.22110000      -1.43600000
H        1.00880000       1.88880000       0.10640000
H       -0.52370000       1.94970000      -0.77720000
H       -0.52320000       1.79000000       0.98350000
H        0.49130000      -0.47930000       0.82170000
H       -1.02560000      -0.42040000      -0.05760000
H        0.15680000       0.84160000      -3.15090000
H        0.62000000      -1.95590000      -4.19090000
H        3.13830000      -2.07160000      -2.76890000
H        2.67280000       0.71150000      -1.69320000
H        1.10830000      -3.49770000      -0.71010000
