21
Properties=species:S:1:pos:R:3 gdb_116308=T pbc="F F F"
C       -0.06710000       1.31990000      -0.47020000
O       -0.06100000      -0.09240000      -0.38610000
C       -1.23060000      -0.62850000       0.18680000
O       -2.37590000      -0.36240000      -0.58830000
C       -2.62600000      -1.45440000      -1.49160000
C       -1.55280000      -2.51600000      -1.20820000
C       -1.09870000      -2.15400000       0.21650000
C        0.26990000      -2.67900000       0.61790000
O        0.18200000      -4.09900000       0.65450000
H        0.88650000       1.61990000      -0.91050000
H       -0.88970000       1.68050000      -1.09830000
H       -0.16040000       1.77920000       0.52610000
H       -1.40220000      -0.16450000       1.16980000
H       -3.63770000      -1.82840000      -1.29150000
H       -2.59880000      -1.08680000      -2.52310000
H       -1.93330000      -3.53510000      -1.28630000
H       -0.71080000      -2.41100000      -1.89900000
H       -1.83520000      -2.53090000       0.93610000
H        1.02190000      -2.33810000      -0.10520000
H        0.55040000      -2.27300000       1.60330000
H        1.05740000      -4.44660000       0.84730000
