19
Properties=species:S:1:pos:R:3 gdb_113570=T pbc="F F F"
C        0.14910000       1.15850000      -0.28590000
O       -0.13640000       0.07170000       0.57210000
C       -1.37910000      -0.49230000       0.33660000
C       -1.54450000      -1.48880000      -0.79940000
C       -1.53430000      -1.96350000       0.63920000
O       -0.40620000      -2.68390000       1.07650000
C       -0.80100000      -3.61480000       2.08580000
C       -2.29490000      -3.47220000       2.18880000
C       -2.70380000      -2.52190000       1.35350000
H        1.14480000       1.52220000      -0.02180000
H        0.14400000       0.85380000      -1.34220000
H       -0.57550000       1.97740000      -0.15830000
H       -2.22700000       0.16050000       0.56110000
H       -2.46700000      -1.51390000      -1.37050000
H       -0.64140000      -1.72110000      -1.35390000
H       -0.48720000      -4.62760000       1.79030000
H       -0.29100000      -3.37870000       3.03340000
H       -2.90620000      -4.06350000       2.85770000
H       -3.71600000      -2.17400000       1.19520000
