18
Properties=species:S:1:pos:R:3 gdb_48540=T pbc="F F F"
O       -0.56070000       0.61280000      -0.64820000
C        0.05280000       1.14540000       0.24530000
C        1.29740000       1.92900000       0.04180000
C        2.76580000       1.33690000       0.04150000
C        2.99160000       2.00670000      -1.33860000
C        1.69050000       2.83350000      -1.16950000
C        1.83360000       3.96140000      -0.12690000
N        1.72190000       3.00640000       1.03440000
C        3.02840000       2.28710000       1.22560000
H       -0.27080000       1.06770000       1.30810000
H        3.00430000       0.27840000       0.14750000
H        3.92840000       2.55400000      -1.48560000
H        2.87930000       1.27470000      -2.14260000
H        1.06060000       2.99260000      -2.04380000
H        2.75440000       4.55460000      -0.13920000
H        0.97600000       4.64130000      -0.11960000
H        3.02330000       1.77170000       2.19120000
H        3.91650000       2.92700000       1.17650000
