21
Properties=species:S:1:pos:R:3 gdb_70313=T pbc="F F F"
C        0.36410000       1.41380000      -0.27430000
C       -0.09310000       0.01310000       0.07610000
C       -1.59370000      -0.20280000      -0.06850000
C       -2.20550000      -1.37190000       0.69460000
C       -1.80610000      -2.79530000       0.49220000
N       -1.47400000      -2.09880000       1.73210000
C       -0.08650000      -1.73810000       2.02880000
C        0.63910000      -0.77780000       1.10080000
N        0.85600000      -1.04160000      -0.33580000
H        1.45290000       1.48280000      -0.21610000
H        0.06490000       1.67560000      -1.29620000
H       -0.07260000       2.15500000       0.40440000
H       -2.08570000       0.71060000       0.28800000
H       -1.85320000      -0.27830000      -1.13390000
H       -3.24830000      -1.19690000       0.95700000
H       -2.54490000      -3.58810000       0.59390000
H       -1.02380000      -3.02810000      -0.22550000
H       -0.08970000      -1.27450000       3.02440000
H        0.48690000      -2.66870000       2.12780000
H        1.50460000      -0.31640000       1.57630000
H        0.37270000      -1.88210000      -0.63300000
