19
Properties=species:S:1:pos:R:3 gdb_29778=T pbc="F F F"
C        0.02630000       1.45160000      -0.00100000
N       -0.03540000       0.00840000      -0.00310000
C       -0.04100000      -0.80510000      -1.13670000
C        0.00690000      -2.11120000      -0.71770000
N       -0.09500000      -3.27990000      -1.50360000
C        0.06600000      -2.12080000       0.71620000
C        0.09040000      -3.32720000       1.60270000
C        0.04850000      -0.79520000       1.09310000
O        0.09350000      -0.20060000       2.31740000
H        1.03770000       1.82140000      -0.21380000
H       -0.65590000       1.85130000      -0.75690000
H       -0.27940000       1.82280000       0.97790000
H       -0.10130000      -0.37220000      -2.12160000
H        0.00450000      -3.07850000      -2.49120000
H        0.60470000      -3.96910000      -1.25130000
H        1.07320000      -3.81800000       1.64170000
H       -0.17670000      -3.08130000       2.63850000
H       -0.63100000      -4.07950000       1.26300000
H        0.08980000      -0.89380000       2.98430000
