16
Properties=species:S:1:pos:R:3 gdb_47452=T pbc="F F F"
O       -0.17490000       0.09570000       0.39500000
C       -0.07120000       1.26070000       0.16410000
O       -1.12820000       2.09660000      -0.03470000
C       -0.63250000       3.38120000      -0.39400000
O        0.71600000       3.43910000       0.00840000
C        1.20040000       2.10380000       0.03100000
C        2.17160000       1.88630000       1.17240000
C        3.13210000       2.94930000       1.54380000
N        2.00150000       2.61220000       2.43260000
H       -0.73240000       3.50590000      -1.48240000
H       -1.20200000       4.14900000       0.13520000
H        1.68440000       1.84210000      -0.92460000
H        2.44640000       0.84000000       1.28050000
H        4.11330000       2.68320000       1.92530000
H        3.08750000       3.88380000       0.99200000
H        1.27580000       3.31520000       2.30650000
