17
Properties=species:S:1:pos:R:3 gdb_79615=T pbc="F F F"
C       -0.20000000       1.51980000       0.09440000
N        0.04780000       0.09050000      -0.07130000
C        0.53560000      -0.63320000      -1.21500000
C        1.37210000       0.01490000      -2.32110000
N        1.60540000       1.45820000      -2.15930000
C        2.65280000       0.49010000      -1.73720000
C        2.64590000       0.11250000      -0.26270000
O        3.60170000       0.17620000       0.46880000
C        1.32730000      -0.57670000       0.07440000
H        0.66100000       2.16530000      -0.08540000
H       -0.99430000       1.81650000      -0.59610000
H       -0.56480000       1.66890000       1.11640000
H       -0.04360000      -1.50930000      -1.49870000
H        1.32030000      -0.41030000      -3.31740000
H        1.89420000       1.85630000      -3.05090000
H        3.60690000       0.48540000      -2.25220000
H        1.39180000      -1.36530000       0.82120000
