14
Properties=species:S:1:pos:R:3 gdb_77795=T pbc="F F F"
O       -0.14760000       1.40900000       0.00130000
C       -0.07190000       0.02350000       0.03910000
C       -0.43040000      -0.78910000       1.27050000
C       -1.55500000      -0.10740000       2.00990000
O       -1.73330000       0.13360000       3.16640000
C       -2.45410000      -0.00810000       0.75780000
C       -1.34450000      -0.75070000      -0.01980000
C       -1.57100000      -1.80610000      -0.95140000
N       -1.75950000      -2.66220000      -1.70670000
H        0.57740000       1.77220000       0.52220000
H        0.74650000      -0.41420000      -0.53250000
H        0.21390000      -1.57830000       1.63850000
H       -3.35890000      -0.60690000       0.88640000
H       -2.70630000       0.98890000       0.39600000
