19
Properties=species:S:1:pos:R:3 gdb_82198=T pbc="F F F"
C       -0.22340000       1.47510000       0.03840000
C        0.12590000       0.01590000      -0.00730000
O       -0.63930000      -0.85100000       0.86080000
C        0.78990000      -0.77120000       1.04140000
C        1.56130000      -1.92270000       0.42990000
C        0.73130000      -3.01580000      -0.19590000
C        1.25970000      -1.89400000      -1.05490000
C        0.37850000      -0.67210000      -1.36080000
O       -0.82930000      -0.94010000      -2.05000000
H        0.59680000       2.08520000      -0.35440000
H       -1.10960000       1.66690000      -0.57600000
H       -0.43720000       1.78960000       1.06290000
H        1.10560000      -0.34560000       1.99050000
H        2.54810000      -2.13820000       0.82180000
H        1.20250000      -3.98380000      -0.32670000
H       -0.32070000      -3.05180000       0.05720000
H        2.02350000      -2.14490000      -1.78180000
H        0.93540000       0.01080000      -2.01210000
H       -1.38620000      -1.43590000      -1.43760000
