15
Properties=species:S:1:pos:R:3 gdb_127605=T pbc="F F F"
C       -0.00280000       1.41240000       0.14170000
N       -0.00820000      -0.03000000       0.02260000
N       -0.05570000      -0.64550000      -1.14840000
C       -0.02600000      -1.94460000      -0.84060000
C        0.04260000      -2.04740000       0.55920000
N        0.09380000      -3.16150000       1.39050000
C        0.08760000      -4.46230000       0.96780000
O        0.03660000      -4.81960000      -0.18730000
N        0.05380000      -0.82420000       1.09100000
H        0.94230000       1.75430000       0.57220000
H       -0.12410000       1.82010000      -0.86050000
H       -0.82620000       1.73660000       0.78250000
H       -0.05440000      -2.72050000      -1.58310000
H        0.13880000      -2.97280000       2.38070000
H        0.13570000      -5.16250000       1.82280000
