21
Properties=species:S:1:pos:R:3 gdb_60550=T pbc="F F F"
C        0.05330000       1.51510000      -0.03490000
C       -0.03040000       0.00460000      -0.01240000
C        1.12570000      -0.77780000      -0.52010000
N        0.82840000      -0.74300000       0.92700000
C       -1.43410000      -0.62460000      -0.12400000
O       -1.37070000      -1.99350000       0.22220000
C       -2.47110000       0.11400000       0.71690000
C       -3.61110000      -0.61680000       1.31160000
N       -2.53010000      -0.09090000       2.17230000
H        1.09660000       1.84600000      -0.04930000
H       -0.43420000       1.92090000      -0.92860000
H       -0.43350000       1.95430000       0.84100000
H        0.96760000      -1.74550000      -0.98600000
H        1.99120000      -0.22830000      -0.87960000
H        1.46140000      -0.12700000       1.42790000
H       -1.75100000      -0.56240000      -1.17570000
H       -0.61230000      -2.06140000       0.82950000
H       -2.63320000       1.14740000       0.41660000
H       -4.57030000      -0.12060000       1.42840000
H       -3.65010000      -1.68830000       1.14670000
H       -1.91460000      -0.86690000       2.41010000
