13
Properties=species:S:1:pos:R:3 gdb_6644=T pbc="F F F"
N       -0.09950000       1.36170000       0.14600000
C        0.10250000       0.03910000      -0.11820000
O        1.18830000      -0.43500000      -0.35910000
C       -1.20410000      -0.78590000      -0.12970000
C       -0.98550000      -2.21710000      -0.05840000
C       -0.83240000      -3.41200000       0.00460000
C       -0.59130000      -4.83010000       0.07280000
O       -1.44760000      -5.66350000       0.26270000
H        0.70550000       1.96540000       0.18090000
H       -0.99000000       1.73060000       0.42960000
H       -1.86300000      -0.46570000       0.68760000
H       -1.73940000      -0.54420000      -1.05850000
H        0.47190000      -5.11210000      -0.06580000
