23
Properties=species:S:1:pos:R:3 gdb_101383=T pbc="F F F"
C        0.00090000       1.53090000       0.07460000
C       -0.04260000      -0.00280000       0.01310000
C       -1.49320000      -0.49260000       0.00980000
O       -2.12520000      -0.03840000       1.20000000
C        0.73020000      -0.55590000      -1.19480000
C        2.22180000      -0.11780000      -1.26270000
C        2.90900000      -1.30120000      -1.89930000
C        2.12780000      -2.37880000      -1.92090000
C        0.77700000      -2.10850000      -1.30310000
H        1.02320000       1.90050000       0.19320000
H       -0.40730000       1.96760000      -0.84570000
H       -0.59670000       1.89480000       0.91280000
H        0.42320000      -0.40000000       0.92720000
H       -2.00700000      -0.10210000      -0.88570000
H       -1.52200000      -1.59060000      -0.04740000
H       -3.04280000      -0.32400000       1.18040000
H        0.24420000      -0.18180000      -2.10680000
H        2.35910000       0.81270000      -1.82440000
H        2.63200000       0.06840000      -0.25840000
H        3.93450000      -1.26200000      -2.25050000
H        2.41540000      -3.35640000      -2.29250000
H        0.70620000      -2.58400000      -0.31240000
H       -0.05200000      -2.51310000      -1.89490000
