13
Properties=species:S:1:pos:R:3 gdb_45956=T pbc="F F F"
O       -0.14910000       0.07010000       0.46220000
C       -0.09080000       1.23620000       0.20640000
C       -1.27000000       2.13450000      -0.16150000
O       -0.78710000       3.47760000      -0.13190000
C        0.54670000       3.56030000       0.14290000
O        1.10380000       4.60040000       0.29400000
C        1.15130000       2.14310000       0.17390000
C        2.13720000       1.90840000       1.20490000
C        2.93960000       1.69800000       2.07170000
H       -1.64330000       1.89460000      -1.16360000
H       -2.08820000       2.01840000       0.55550000
H        1.60140000       1.99590000      -0.82200000
H        3.65390000       1.51990000       2.83750000
