19
Properties=species:S:1:pos:R:3 gdb_64712=T pbc="F F F"
C       -0.06630000       1.68860000       0.11990000
C        0.04180000       0.17470000       0.01370000
C       -1.35160000      -0.46810000      -0.14100000
C       -2.01280000      -0.10180000      -1.39080000
N       -2.51440000       0.19660000      -2.38840000
C        1.08570000      -0.44240000      -0.96780000
C        1.69180000      -1.12990000       0.25230000
C        2.08460000      -0.14560000       1.27460000
N        0.66340000      -0.53400000       1.20560000
H        0.91230000       2.16770000       0.19440000
H       -0.56670000       2.09760000      -0.76340000
H       -0.64980000       1.96670000       1.00440000
H       -1.25310000      -1.55740000      -0.09430000
H       -1.98140000      -0.17190000       0.70510000
H        0.64080000      -1.12110000      -1.69760000
H        1.74100000       0.25440000      -1.49760000
H        1.97390000      -2.17580000       0.31110000
H        2.56340000      -0.51580000       2.17590000
H        2.39550000       0.85290000       0.98030000
