19
Properties=species:S:1:pos:R:3 gdb_82137=T pbc="F F F"
C       -0.16120000       1.65120000      -0.12680000
C        0.00190000       0.13810000      -0.08170000
C        0.73940000      -0.58120000      -1.22400000
C        2.18500000      -0.18670000      -1.26490000
C        1.74520000      -1.18870000      -0.23270000
C        1.03810000      -0.49290000       0.91730000
O        1.84300000       0.43650000       1.65050000
C        1.83350000       0.38350000       2.99400000
O        2.46200000       1.13310000       3.67910000
H        0.79160000       2.16290000      -0.28060000
H       -0.83570000       1.93580000      -0.94110000
H       -0.58810000       2.02710000       0.80890000
H       -0.97320000      -0.32850000       0.09160000
H        0.25450000      -1.07180000      -2.05860000
H        2.75550000      -0.61020000      -2.08490000
H        2.51270000       0.80280000      -0.96310000
H        2.15230000      -2.19120000      -0.19290000
H        0.56550000      -1.18880000       1.61820000
H        1.18740000      -0.42730000       3.38600000
