19
Properties=species:S:1:pos:R:3 gdb_9346=T pbc="F F F"
C        0.03270000       1.43320000      -0.19550000
C       -0.13900000      -0.08630000      -0.12940000
C       -1.48560000      -0.49200000       0.48160000
N       -1.66500000      -1.93150000       0.56870000
C       -2.54790000      -2.61750000      -0.21710000
O       -3.30460000      -2.08780000      -1.00370000
C       -2.46030000      -4.14130000      -0.05150000
O       -3.72690000      -4.69480000      -0.30670000
H        0.99820000       1.70440000      -0.63230000
H       -0.75130000       1.89260000      -0.80690000
H       -0.01940000       1.88360000       0.80210000
H       -0.06460000      -0.51980000      -1.13350000
H        0.67620000      -0.52640000       0.46080000
H       -1.59070000      -0.05080000       1.48160000
H       -2.31070000      -0.12200000      -0.13180000
H       -1.08580000      -2.44790000       1.21080000
H       -1.70010000      -4.49580000      -0.76710000
H       -2.09590000      -4.39100000       0.95960000
H       -3.61790000      -5.63980000      -0.44400000
