19
Properties=species:S:1:pos:R:3 gdb_6046=T pbc="F F F"
C       -0.51410000       0.96990000       0.18480000
O       -0.13310000      -0.34740000       0.51860000
C        0.95870000      -0.51250000       1.43310000
C        2.26880000       0.05610000       0.86670000
C        0.64090000       0.07960000       2.81460000
C        1.15320000      -2.03970000       1.61400000
N        0.30090000      -2.82090000       0.91140000
O        2.02530000      -2.46950000       2.34800000
H        0.29300000       1.52650000      -0.30920000
H       -1.35040000       0.88270000      -0.51350000
H       -0.85110000       1.54230000       1.05890000
H        2.26470000       1.14970000       0.86480000
H        3.09980000      -0.28710000       1.48550000
H        2.42640000      -0.29710000      -0.15680000
H       -0.34240000      -0.25720000       3.15650000
H        1.39350000      -0.26240000       3.52750000
H        0.65130000       1.17300000       2.79550000
H       -0.39600000      -2.39690000       0.32430000
H        0.38220000      -3.82010000       0.99200000
