19
Properties=species:S:1:pos:R:3 gdb_73975=T pbc="F F F"
C       -0.12610000       1.34860000      -0.22140000
C       -0.00710000      -0.08000000       0.20280000
C       -1.03390000      -0.93300000       0.41440000
C       -2.14220000      -0.98970000      -0.60520000
C       -1.77040000      -1.99120000      -1.42170000
C       -0.63190000      -2.80060000      -0.83110000
C        0.74500000      -2.30200000      -0.16600000
C        1.27400000      -0.87000000      -0.06900000
C       -0.53030000      -2.36340000       0.59050000
H        0.52870000       1.99510000       0.37720000
H        0.18190000       1.47980000      -1.26820000
H       -1.14830000       1.72030000      -0.11360000
H       -2.90720000      -0.24810000      -0.79000000
H       -2.24260000      -2.24800000      -2.36300000
H       -0.57910000      -3.85400000      -1.09080000
H        1.46380000      -3.11530000      -0.10090000
H        1.71480000      -0.48960000      -1.00140000
H        2.06840000      -0.79940000       0.69150000
H       -0.75760000      -2.96450000       1.46640000
