15
Properties=species:S:1:pos:R:3 gdb_28169=T pbc="F F F"
C       -0.01810000       1.43580000       0.10560000
C       -0.00460000      -0.03770000      -0.06890000
N       -0.04890000      -0.72960000      -1.16130000
C       -0.00580000      -2.05900000      -0.73430000
C        0.06370000      -2.05210000       0.63040000
N        0.10880000      -3.31000000       1.13170000
C        0.06560000      -4.16360000       0.02180000
C       -0.00530000      -3.42720000      -1.14150000
O        0.06800000      -0.79310000       1.11410000
H        0.89310000       1.78700000       0.60200000
H       -0.08840000       1.90150000      -0.87770000
H       -0.86990000       1.75710000       0.71470000
H        0.16220000      -3.59440000       2.09300000
H        0.09020000      -5.23040000       0.17130000
H       -0.04970000      -3.83580000      -2.13830000
