17
Properties=species:S:1:pos:R:3 gdb_11534=T pbc="F F F"
O        1.44940000       1.54440000       0.57410000
C        0.57150000       0.71870000      -0.13780000
C        1.27610000       0.12260000      -1.37220000
N        0.31570000      -0.57230000      -2.21710000
C       -0.29650000       0.21560000      -3.28620000
C        0.72690000      -0.81970000      -3.59430000
C        0.03250000      -0.37880000       0.75910000
O        0.33530000      -0.43480000       1.92840000
H        1.44190000       1.20330000       1.48330000
H       -0.30400000       1.29050000      -0.49720000
H        1.79580000       0.94680000      -1.88940000
H        2.04200000      -0.58990000      -1.04450000
H       -1.34900000       0.02410000      -3.47280000
H        0.00450000       1.25740000      -3.38600000
H        1.71110000      -0.46940000      -3.90070000
H        0.43490000      -1.78010000      -4.00870000
H       -0.63710000      -1.11810000       0.28390000
