17
Properties=species:S:1:pos:R:3 gdb_42819=T pbc="F F F"
O        0.01300000      -0.02600000      -0.06610000
C       -0.00390000       1.15670000       0.05590000
C       -1.03230000       2.31540000       0.04060000
C       -0.80370000       3.00030000       1.40380000
C        0.74560000       3.00560000       1.37180000
C        1.59650000       4.12390000       1.89540000
C        1.63140000       2.76630000       2.56200000
C        0.98130000       2.35100000       0.01710000
O       -0.04860000       2.97920000      -0.82160000
H       -2.03250000       2.24750000      -0.38210000
H       -1.22750000       4.00820000       1.41130000
H       -1.22480000       2.43020000       2.23740000
H        2.45860000       4.43240000       1.31310000
H        1.09580000       4.93470000       2.41520000
H        1.15990000       2.65820000       3.53310000
H        2.51800000       2.15410000       2.43010000
H        1.97830000       2.32570000      -0.41860000
