14
Properties=species:S:1:pos:R:3 gdb_129337=T pbc="F F F"
N       -0.15910000       1.26030000       0.00890000
C       -0.07300000      -0.01110000       0.00130000
N       -1.10050000      -0.93690000       0.00210000
C       -0.42300000      -2.06690000      -0.00800000
N       -1.15950000      -3.29050000      -0.01060000
C       -0.58560000      -4.45540000      -0.02020000
N       -1.21540000      -5.62420000      -0.02310000
H       -0.68450000      -6.47850000      -0.03070000
H       -2.22090000      -5.69930000      -0.01780000
N        0.88130000      -2.10470000      -0.01570000
O        1.15920000      -0.70560000      -0.00960000
H        0.77660000       1.66340000       0.00570000
H       -2.16560000      -3.15980000      -0.00420000
H        0.50170000      -4.43960000      -0.02620000
