20
Properties=species:S:1:pos:R:3 gdb_121755=T pbc="F F F"
C       -0.28310000       1.47610000       0.00120000
C       -0.16990000      -0.00620000       0.30390000
O       -1.33110000      -0.64850000      -0.24560000
C       -1.37820000      -1.99530000      -0.07670000
O       -0.52940000      -2.64350000       0.49830000
N       -2.50310000      -2.49270000      -0.65600000
C       -2.88800000      -3.88260000      -0.54130000
C       -4.22930000      -4.03330000       0.16290000
O       -5.18620000      -3.31880000      -0.61110000
H        0.58550000       2.00530000       0.40450000
H       -0.32410000       1.65230000      -1.07750000
H       -1.18490000       1.89970000       0.45260000
H        0.72900000      -0.44470000      -0.14130000
H       -0.12640000      -0.19900000       1.38080000
H       -3.17980000      -1.84430000      -1.02390000
H       -2.95860000      -4.34000000      -1.53670000
H       -2.10130000      -4.39450000       0.01650000
H       -4.48710000      -5.10120000       0.23560000
H       -4.15760000      -3.62660000       1.18240000
H       -6.01340000      -3.28680000      -0.12270000
