18
Properties=species:S:1:pos:R:3 gdb_43679=T pbc="F F F"
O        0.20870000       0.13730000      -0.49810000
C        0.11400000       1.27220000      -0.14520000
C       -0.98680000       2.13050000       0.49720000
N        0.04100000       3.17100000       0.73310000
C       -0.30430000       4.54600000       0.43150000
C        0.79360000       5.48910000       0.86980000
C        1.78940000       6.02380000      -0.06940000
O        0.69780000       6.82580000       0.38330000
C        1.04550000       2.49370000      -0.12170000
H       -1.75880000       2.40650000      -0.24030000
H       -1.47590000       1.73840000       1.39500000
H       -0.51470000       4.71350000      -0.64290000
H       -1.22010000       4.79480000       0.98130000
H        1.07300000       5.40340000       1.92040000
H        2.77180000       6.32170000       0.29350000
H        1.74960000       5.73490000      -1.11940000
H        2.03830000       2.36480000       0.32080000
H        1.15640000       2.93060000      -1.12870000
