21
Properties=species:S:1:pos:R:3 gdb_121181=T pbc="F F F"
C       -0.28180000       1.47140000       0.00520000
C        0.00410000      -0.03220000       0.00310000
C        0.75800000      -0.49540000      -1.24900000
C        0.98920000      -1.99480000      -1.25610000
O       -0.24570000      -2.75140000      -1.30630000
C        0.08040000      -3.32570000      -2.58180000
C        1.48810000      -2.66890000      -2.57940000
C        1.85340000      -1.83700000      -3.70550000
C        2.14780000      -1.15140000      -4.64880000
H        0.64570000       2.05340000      -0.03920000
H       -0.89240000       1.75900000      -0.85790000
H       -0.82080000       1.77250000       0.90890000
H        0.58600000      -0.29750000       0.89610000
H       -0.93540000      -0.59210000       0.07120000
H        0.19990000      -0.21350000      -2.14980000
H        1.73240000       0.00720000      -1.31610000
H        1.57980000      -2.29170000      -0.37870000
H        0.07120000      -4.42130000      -2.55920000
H       -0.58140000      -2.97230000      -3.38080000
H        2.27900000      -3.39760000      -2.38250000
H        2.41110000      -0.54590000      -5.48050000
