16
Properties=species:S:1:pos:R:3 gdb_18897=T pbc="F F F"
C        0.03130000       1.52580000       0.00520000
C       -0.01360000       0.03310000      -0.00560000
C        0.84070000      -0.98170000      -0.75880000
C        0.81640000      -0.98690000       0.76640000
C       -0.36850000      -1.99460000       0.74730000
C       -0.33810000      -1.99640000      -0.79030000
C       -1.20580000      -1.00450000      -0.02510000
O       -2.56600000      -0.84990000       0.03710000
H        1.06840000       1.87820000       0.03700000
H       -0.43440000       1.95400000      -0.89070000
H       -0.48630000       1.93690000       0.87950000
H        1.66290000      -0.80260000      -1.44070000
H        1.61620000      -0.81720000       1.47670000
H       -0.68100000      -2.77990000       1.42180000
H       -0.61200000      -2.79070000      -1.47200000
H       -2.88550000      -0.59630000      -0.83670000
