19
Properties=species:S:1:pos:R:3 gdb_63273=T pbc="F F F"
C       -0.42400000       1.52350000       0.09810000
C       -0.01460000       0.05540000       0.01620000
C       -1.18800000      -0.84210000      -0.38580000
C        1.28270000      -0.23640000      -0.82130000
C        1.87280000      -0.98730000       0.38970000
O        2.82640000      -1.68720000       0.56730000
C        0.72110000      -0.50980000       1.26030000
C        0.80140000      -0.00140000       2.64010000
O        0.13150000      -1.22120000       2.33000000
H        0.41560000       2.15780000       0.40080000
H       -0.78260000       1.88170000      -0.87300000
H       -1.23480000       1.66780000       0.82090000
H       -1.59500000      -0.53490000      -1.35490000
H       -0.88290000      -1.89080000      -0.46300000
H       -1.98870000      -0.78760000       0.35800000
H        1.15450000      -0.84350000      -1.72100000
H        1.86350000       0.65510000      -1.07820000
H        1.73340000      -0.10680000       3.19290000
H        0.15890000       0.82650000       2.93550000
