18
Properties=species:S:1:pos:R:3 gdb_99676=T pbc="F F F"
C       -0.18660000       1.42330000       0.18190000
O        0.11860000       0.05510000      -0.03530000
C        0.78960000      -0.56720000       1.03130000
C       -0.06280000      -0.66190000       2.23850000
N       -0.75180000      -0.71230000       3.16450000
C        1.20350000      -1.96140000       0.54460000
C        2.32940000      -1.99840000      -0.50620000
C        3.11580000      -2.75970000       0.58190000
O        2.01590000      -2.63770000       1.51700000
H        0.72470000       2.01040000       0.36760000
H       -0.66670000       1.78430000      -0.72930000
H       -0.87220000       1.55410000       1.02890000
H        1.69780000      -0.00890000       1.31290000
H        0.30090000      -2.52940000       0.29050000
H        2.10300000      -2.56020000      -1.41210000
H        2.72840000      -1.02090000      -0.78210000
H        3.33830000      -3.80890000       0.35770000
H        4.02400000      -2.27500000       0.95720000
