10
Properties=species:S:1:pos:R:3 gdb_2643=T pbc="F F F"
C       -0.01810000       1.47580000       0.01020000
C        0.00190000       0.02730000       0.00210000
C        0.01860000      -1.18470000      -0.00460000
C        0.03720000      -2.53510000      -0.01200000
C        0.05360000      -3.75110000      -0.01860000
C        0.07110000      -5.10990000      -0.02600000
N        0.08610000      -6.27360000      -0.03240000
H        0.99960000       1.88120000       0.00270000
H       -0.54360000       1.86470000      -0.86890000
H       -0.52670000       1.85500000       0.90340000
