19
Properties=species:S:1:pos:R:3 gdb_70060=T pbc="F F F"
C        0.02200000       1.58920000       0.16160000
C        0.14330000       0.10000000      -0.01990000
O       -0.60090000      -0.70930000       0.89100000
C        0.85300000      -0.81590000       0.91730000
C        1.31300000      -2.01780000       0.15260000
C        1.02790000      -1.82010000      -1.13820000
C        0.38090000      -2.53190000      -2.30340000
C       -0.71550000      -1.40650000      -2.18440000
C        0.32010000      -0.51390000      -1.40480000
H        0.83750000       2.11100000      -0.35030000
H       -0.92310000       1.95150000      -0.25850000
H        0.04490000       1.85560000       1.22110000
H        1.30430000      -0.48130000       1.84720000
H        1.60070000      -2.94930000       0.62500000
H        0.93720000      -2.43890000      -3.24170000
H        0.07690000      -3.57120000      -2.16360000
H       -1.10730000      -1.00170000      -3.11970000
H       -1.53000000      -1.71470000      -1.52760000
H        0.84180000       0.16740000      -2.08580000
