17
Properties=species:S:1:pos:R:3 gdb_32008=T pbc="F F F"
C        0.19970000       1.55250000      -0.08740000
C       -0.06800000       0.04680000       0.08520000
C        0.57690000      -0.51850000       1.31110000
C       -0.05080000      -1.07940000       2.37080000
C        0.78420000      -1.55280000       3.43220000
N        2.07630000      -1.46590000       3.43930000
C        2.70520000      -0.87340000       2.35290000
N        3.94770000      -0.69010000       2.20270000
O        1.91390000      -0.41760000       1.28290000
H        1.27280000       1.75020000      -0.13540000
H       -0.26070000       1.91310000      -1.01090000
H       -0.21750000       2.12290000       0.74790000
H       -1.14200000      -0.15290000       0.13470000
H        0.32740000      -0.49260000      -0.78450000
H       -1.12700000      -1.16810000       2.40510000
H        0.32300000      -2.02240000       4.30150000
H        4.42100000      -1.05840000       3.02610000
