11
Properties=species:S:1:pos:R:3 gdb_106=T pbc="F F F"
C       -0.06180000       1.59310000       0.02470000
C        1.43250000       1.19110000       0.01310000
C        1.15430000       0.13750000       1.11190000
C        0.05960000       0.05040000       0.02160000
O        1.11840000       0.16490000      -1.00960000
H       -0.46080000       2.08010000       0.91860000
H       -0.43080000       2.03030000      -0.90370000
H        2.31660000       1.80870000      -0.14900000
H        1.85110000      -0.70100000       1.13620000
H        0.86850000       0.48910000       2.10690000
H       -0.71070000      -0.70650000      -0.13020000
