15
Properties=species:S:1:pos:R:3 gdb_31206=T pbc="F F F"
C       -0.01630000       1.39630000       0.00930000
O       -0.01000000      -0.02210000       0.00460000
C       -1.19140000      -0.65330000       0.01210000
C       -1.40020000      -2.02530000       0.01030000
C       -2.82360000      -2.22230000       0.02070000
C       -3.41500000      -0.99460000       0.02830000
N       -2.40720000      -0.03630000       0.02300000
C       -0.39220000      -3.01340000       0.00010000
N        0.42510000      -3.83570000      -0.00820000
H        1.02910000       1.70430000       0.00230000
H       -0.51380000       1.79810000      -0.88350000
H       -0.50000000       1.79210000       0.91230000
H       -3.32190000      -3.17800000       0.02210000
H       -4.45030000      -0.69920000       0.03700000
H       -2.55570000       0.95680000       0.02670000
