23
Properties=species:S:1:pos:R:3 gdb_76874=T pbc="F F F"
C       -0.16810000       1.58020000      -0.09400000
C        0.04850000       0.06890000      -0.01170000
C        0.89200000      -0.53030000      -1.19590000
C        1.24710000      -1.91670000      -0.61140000
C        1.97660000      -1.31680000       0.61250000
C        2.90730000      -0.33670000      -0.08770000
C        2.26270000       0.13060000      -1.16230000
C        0.80960000      -0.48290000       1.25730000
C        1.26640000       0.54010000       2.29770000
H        0.77660000       2.13110000      -0.09010000
H       -0.70000000       1.83880000      -1.01660000
H       -0.77130000       1.94560000       0.74330000
H       -0.93900000      -0.40650000      -0.04700000
H        0.37390000      -0.50860000      -2.15640000
H        0.37030000      -2.51780000      -0.34690000
H        1.90970000      -2.49490000      -1.26020000
H        2.45030000      -2.01430000       1.30570000
H        3.87190000      -0.02000000       0.28880000
H        2.59450000       0.90640000      -1.84120000
H        0.14800000      -1.19470000       1.76540000
H        1.95470000       1.27690000       1.87430000
H        0.41800000       1.08310000       2.72630000
H        1.78340000       0.03820000       3.12350000
