21
Properties=species:S:1:pos:R:3 gdb_96496=T pbc="F F F"
O       -0.01060000       1.49730000       0.01010000
C        0.05260000       0.07510000      -0.06510000
C        0.89710000      -0.44690000       1.11260000
O        1.22110000      -1.81740000       0.99320000
C        0.60410000      -2.70070000       1.90660000
C       -0.93870000      -2.74930000       1.81470000
C       -1.42370000      -2.88920000       0.40030000
C       -1.59540000      -1.86120000      -0.43120000
C       -1.40770000      -0.40570000      -0.07720000
H        0.88610000       1.84130000      -0.05720000
H        0.54110000      -0.24890000      -0.99730000
H        1.84450000       0.11330000       1.11900000
H        0.38600000      -0.22170000       2.05920000
H        1.02220000      -3.68430000       1.66920000
H        0.89290000      -2.45520000       2.94150000
H       -1.27910000      -3.58490000       2.43720000
H       -1.34930000      -1.83940000       2.26740000
H       -1.57580000      -3.89980000       0.02790000
H       -1.89020000      -2.06770000      -1.45760000
H       -1.84610000      -0.17630000       0.90250000
H       -1.93540000       0.22090000      -0.80260000
