15
Properties=species:S:1:pos:R:3 gdb_43092=T pbc="F F F"
O        0.01110000       0.00750000      -0.02030000
C       -0.01020000       1.20200000       0.03020000
C       -1.11450000       2.26470000       0.00130000
C       -1.20740000       2.93450000       1.40750000
C        0.07040000       3.79170000       1.35940000
O       -0.01000000       4.42000000       0.09610000
C       -0.05510000       3.23520000      -0.66710000
C        1.06060000       2.31120000      -0.03690000
O        1.19810000       2.92130000       1.25840000
H       -2.06830000       2.03980000      -0.47240000
H       -2.09470000       3.56850000       1.48210000
H       -1.20500000       2.21730000       2.22990000
H        0.23870000       4.51430000       2.15570000
H       -0.07410000       3.42460000      -1.73540000
H        2.04100000       2.14330000      -0.48120000
