18
Properties=species:S:1:pos:R:3 gdb_8689=T pbc="F F F"
C       -0.13800000       1.37660000       0.03580000
O        0.02810000      -0.03070000      -0.02980000
C        0.69100000      -0.55640000      -1.17300000
C        2.16800000      -0.13100000      -1.23710000
C        0.56950000      -2.08430000      -1.02240000
N       -0.83000000      -2.47710000      -0.98430000
C        0.00370000      -0.11820000      -2.41550000
N       -0.48680000       0.27420000      -3.38530000
H        0.81940000       1.90210000       0.14560000
H       -0.66000000       1.76440000      -0.84790000
H       -0.74560000       1.56880000       0.92240000
H        2.66000000      -0.40740000      -0.30080000
H        2.67170000      -0.63220000      -2.06770000
H        2.26950000       0.94570000      -1.38620000
H        1.04980000      -2.55760000      -1.88480000
H        1.15480000      -2.34990000      -0.12570000
H       -0.91390000      -3.48560000      -0.92560000
H       -1.26560000      -2.08250000      -0.15760000
