18
Properties=species:S:1:pos:R:3 gdb_87574=T pbc="F F F"
C       -0.06410000       1.53880000      -0.00600000
C       -0.02840000       0.03410000       0.09390000
N        1.28020000      -0.62190000      -0.14550000
C        0.67000000      -0.68640000       1.17610000
C        1.31570000      -0.18290000       2.45230000
O        0.24730000      -0.13250000       3.42220000
C        0.89720000      -1.39050000       3.18610000
C        0.22310000      -1.97850000       1.92770000
O       -1.14070000      -2.28160000       2.00200000
H        0.85490000       1.97370000       0.39550000
H       -0.15970000       1.85790000      -1.04910000
H       -0.91340000       1.94480000       0.55350000
H       -0.90570000      -0.48130000      -0.29580000
H        1.15590000      -1.50580000      -0.63500000
H        2.16740000       0.46830000       2.60070000
H        1.33660000      -1.89490000       4.03860000
H        0.73790000      -2.86730000       1.54820000
H       -1.55680000      -1.52530000       2.43570000
