19
Properties=species:S:1:pos:R:3 gdb_40052=T pbc="F F F"
C        0.00490000       1.51940000       0.01680000
C        1.30280000       0.74230000      -0.01530000
C       -0.01160000       0.01810000       0.02480000
C       -0.45270000      -0.84450000       1.22430000
C       -1.12460000      -2.00470000       0.46040000
O       -2.38600000      -1.55910000      -0.03590000
C       -2.05380000      -0.76140000      -1.18630000
C       -0.51330000      -0.80850000      -1.16080000
O       -0.31490000      -2.15530000      -0.69150000
H       -0.26090000       2.04050000       0.93070000
H       -0.30080000       2.03510000      -0.88880000
H        1.87160000       0.73440000      -0.93990000
H        1.91360000       0.73160000       0.88190000
H        0.39960000      -1.20050000       1.81120000
H       -1.16130000      -0.34600000       1.88960000
H       -1.24900000      -2.95250000       0.98290000
H       -2.46800000      -1.22550000      -2.08880000
H       -2.45550000       0.25100000      -1.07690000
H       -0.00970000      -0.65220000      -2.11400000
