18
Properties=species:S:1:pos:R:3 gdb_56549=T pbc="F F F"
C       -0.00930000       1.63430000       0.08950000
C       -0.02050000       0.09440000       0.05420000
C        0.72740000      -0.45060000       1.19010000
N        1.28310000      -0.88360000       2.10710000
C       -1.46810000      -0.53600000       0.06810000
N       -2.30660000      -0.17670000       1.18990000
C       -2.19320000      -0.10540000      -1.21600000
N       -2.00530000      -0.92050000      -2.29080000
O       -2.83150000       0.92850000      -1.27120000
H        1.01710000       2.00730000       0.06530000
H       -0.55730000       2.03490000      -0.76470000
H       -0.48330000       2.00100000       1.00300000
H        0.48060000      -0.24860000      -0.86010000
H       -1.33000000      -1.62480000       0.06020000
H       -1.79490000      -0.20630000       2.06510000
H       -2.68210000       0.75510000       1.04380000
H       -1.65080000      -1.85570000      -2.18420000
H       -2.50550000      -0.69830000      -3.13740000
