20
Properties=species:S:1:pos:R:3 gdb_53674=T pbc="F F F"
C       -0.42900000       0.61010000       1.09590000
C       -0.16160000      -0.60890000       0.34550000
C        0.06730000      -1.61540000      -0.27680000
C        0.30860000      -2.84640000      -1.04330000
N       -0.81150000      -3.78830000      -1.12170000
C       -1.23480000      -4.34910000       0.13830000
C       -2.18970000      -3.60370000       1.11710000
O       -3.07030000      -4.74600000       1.16550000
C       -2.37310000      -5.38760000       0.08030000
H        0.20940000       0.68100000       1.98340000
H       -0.24850000       1.50150000       0.48500000
H       -1.47040000       0.64690000       1.43430000
H        0.59890000      -2.58600000      -2.06820000
H        1.16410000      -3.38340000      -0.61350000
H       -1.59760000      -3.34240000      -1.58580000
H       -0.34980000      -4.73390000       0.65390000
H       -1.80400000      -3.33660000       2.10680000
H       -2.67510000      -2.72460000       0.67050000
H       -2.94280000      -5.35020000      -0.86050000
H       -2.12250000      -6.43090000       0.30170000
