17
Properties=species:S:1:pos:R:3 gdb_88234=T pbc="F F F"
C       -0.70230000       1.20280000       0.25880000
C        0.05710000      -0.07700000       0.03720000
O        1.44680000       0.02480000      -0.26350000
C        1.07560000      -0.59090000       0.98430000
C        1.41770000       0.09720000       2.19810000
C        1.70620000       0.65140000       3.22920000
C        2.05780000       1.29190000       4.46610000
C        2.46910000       2.70960000       4.51580000
O        1.17760000       2.31680000       4.95960000
H       -0.15310000       1.87320000       0.92270000
H       -0.86930000       1.71170000      -0.69600000
H       -1.67980000       0.99100000       0.70440000
H       -0.46250000      -0.83420000      -0.55410000
H        1.24260000      -1.66780000       1.00800000
H        2.43770000       0.62930000       5.24290000
H        3.16120000       3.03100000       5.29300000
H        2.49620000       3.28150000       3.59040000
