19
Properties=species:S:1:pos:R:3 gdb_107883=T pbc="F F F"
C       -0.05540000       1.58630000      -0.12190000
C       -0.06060000       0.05460000      -0.05600000
C       -1.44280000      -0.51150000       0.04050000
O       -2.40470000      -0.22230000      -1.03250000
C       -3.14080000      -1.05550000      -0.09480000
C       -1.93880000      -1.98960000       0.23360000
C       -2.13260000      -1.79580000       1.74070000
O       -0.93710000      -1.90340000       2.48380000
C       -2.52480000      -0.41140000       1.18090000
H        0.96310000       1.96690000      -0.24140000
H       -0.65570000       1.93870000      -0.96500000
H       -0.47250000       2.02250000       0.79170000
H        0.41790000      -0.36150000      -0.95130000
H        0.50350000      -0.30630000       0.81010000
H       -4.17610000      -1.30770000      -0.31770000
H       -1.61400000      -2.86890000      -0.32170000
H       -2.94530000      -2.37580000       2.19870000
H       -1.11810000      -1.63120000       3.38880000
H       -2.86650000       0.49050000       1.68950000
