18
Properties=species:S:1:pos:R:3 gdb_82411=T pbc="F F F"
C        0.74200000       1.52240000      -0.06370000
C        0.12500000       0.11490000       0.05990000
C        0.40510000      -0.76620000      -1.15490000
O        1.55410000      -0.45880000      -1.94730000
C        1.59900000      -1.62120000      -1.11590000
C        2.44610000      -1.50720000       0.13420000
O        1.66070000      -1.37410000       1.33000000
C        0.56630000      -0.56120000       1.35070000
N       -0.08500000      -0.36940000       2.42040000
H        1.83100000       1.48430000      -0.13770000
H        0.36940000       2.02080000      -0.96290000
H        0.46810000       2.11520000       0.81160000
H       -0.95570000       0.23140000       0.16280000
H       -0.45780000      -1.08880000      -1.73400000
H        1.61870000      -2.56610000      -1.65450000
H        3.04430000      -2.40610000       0.29680000
H        3.12460000      -0.65170000       0.03610000
H        0.35470000      -0.87010000       3.19570000
