19
Properties=species:S:1:pos:R:3 gdb_70480=T pbc="F F F"
C       -0.00190000       1.50550000      -0.11400000
C        0.15730000       0.02090000      -0.01800000
N       -0.82280000      -0.83840000       0.69820000
C        0.61850000      -0.88240000       1.07380000
C        1.26840000      -1.85170000       0.08850000
C        0.76700000      -0.91740000      -1.07880000
N       -0.16590000      -1.45790000      -2.03220000
C        0.06590000      -1.51890000      -3.36910000
O        1.07890000      -1.14730000      -3.92560000
H        0.93120000       1.98130000      -0.43310000
H       -0.77700000       1.77210000      -0.84190000
H       -0.28600000       1.93510000       0.85300000
H       -1.29670000      -0.24460000       1.37860000
H        0.92940000      -0.64040000       2.08250000
H        2.35830000      -1.88320000       0.14990000
H        0.86630000      -2.86760000       0.09310000
H        1.58940000      -0.47230000      -1.63780000
H       -1.04740000      -1.77970000      -1.66050000
H       -0.79450000      -1.95720000      -3.91350000
