21
Properties=species:S:1:pos:R:3 gdb_89922=T pbc="F F F"
C        0.24320000       1.70190000      -0.03500000
C        0.05700000       0.19280000       0.01200000
C        0.87100000      -0.70840000      -0.96330000
C        1.16210000      -1.72120000       0.20030000
C        2.57200000      -1.54680000       0.83400000
C        2.04520000      -0.35120000       1.67880000
C        0.58900000      -0.63510000       1.20930000
C        0.62220000      -3.04660000       0.06120000
C        0.16810000      -4.15660000      -0.04690000
H        1.29670000       1.98690000       0.05570000
H       -0.12360000       2.10830000      -0.98410000
H       -0.30760000       2.19690000       0.77280000
H       -1.00750000      -0.03910000      -0.10580000
H        0.31420000      -1.12020000      -1.80640000
H        1.78500000      -0.24190000      -1.34470000
H        2.84650000      -2.40550000       1.45040000
H        3.38490000      -1.34790000       0.12980000
H        2.19690000      -0.46050000       2.75440000
H        2.43640000       0.62630000       1.38630000
H       -0.12030000      -0.89510000       1.99580000
H       -0.23080000      -5.13560000      -0.14370000
