20
Properties=species:S:1:pos:R:3 gdb_63484=T pbc="F F F"
C       -0.02380000       1.48770000      -0.25010000
C        0.04630000       0.00360000       0.03430000
O       -1.10140000      -0.68700000      -0.40360000
C        1.35720000      -0.74880000      -0.02420000
C        0.64930000      -0.55130000       1.30790000
C        1.26990000       0.36750000       2.34340000
C       -0.04440000      -1.77250000       1.91460000
C        0.90290000      -2.68990000       2.54930000
N        1.66340000      -3.40390000       3.04720000
H        0.86700000       2.01980000       0.08900000
H       -0.11350000       1.65620000      -1.33030000
H       -0.90110000       1.93060000       0.23160000
H       -1.08920000      -0.69920000      -1.36700000
H        1.33970000      -1.74130000      -0.46260000
H        2.27330000      -0.19350000      -0.19890000
H        1.82460000       1.18910000       1.88610000
H        0.50640000       0.80070000       3.00030000
H        1.97160000      -0.19230000       2.97100000
H       -0.77420000      -1.45460000       2.66960000
H       -0.60400000      -2.30860000       1.14550000
