21
Properties=species:S:1:pos:R:3 gdb_61676=T pbc="F F F"
C       -0.08950000       1.53100000      -0.17440000
C        0.01090000       0.01080000       0.03260000
C        0.72700000      -0.38240000       1.34640000
C        2.17330000       0.08340000       1.41160000
C        3.10760000      -0.59330000       2.44140000
C        3.95070000      -0.97360000       1.20820000
O        2.96480000      -0.42280000       0.30900000
C       -1.38150000      -0.58830000       0.06310000
O       -1.76070000      -1.51180000      -0.60870000
H        0.90170000       1.98370000      -0.25460000
H       -0.63280000       1.76420000      -1.09540000
H       -0.61590000       2.01320000       0.65770000
H        0.54830000      -0.45020000      -0.80100000
H        0.18750000       0.03090000       2.21080000
H        0.70740000      -1.47460000       1.44390000
H        2.22280000       1.18050000       1.44370000
H        3.58230000       0.06610000       3.16910000
H        2.65620000      -1.44010000       2.96270000
H        4.91240000      -0.45150000       1.12590000
H        4.11270000      -2.04300000       1.03270000
H       -2.06610000      -0.09760000       0.79880000
