19
Properties=species:S:1:pos:R:3 gdb_17329=T pbc="F F F"
C       -0.01470000       1.51250000       0.00060000
C        0.03030000       0.00190000       0.01430000
C       -0.86460000      -0.77450000       0.95250000
C        0.63140000      -0.80000000       1.15470000
C        1.46110000      -1.92630000       0.53780000
N        1.42750000      -1.79420000      -0.94070000
C        0.13410000      -2.08370000      -1.57410000
C        0.50560000      -0.68080000      -1.25770000
H        0.93910000       1.93600000      -0.33490000
H       -0.79800000       1.88380000      -0.67060000
H       -0.22240000       1.90760000       0.99960000
H       -1.44220000      -0.18990000       1.66270000
H       -1.38040000      -1.66530000       0.61310000
H        1.03290000      -0.30000000       2.03090000
H        2.50480000      -1.82580000       0.85370000
H        1.12800000      -2.92770000       0.83510000
H        0.20600000      -2.44650000      -2.59700000
H       -0.64280000      -2.56950000      -0.99160000
H        0.81300000      -0.01600000      -2.06190000
