13
Properties=species:S:1:pos:R:3 gdb_3210=T pbc="F F F"
O        0.08260000       1.50700000      -0.09620000
C       -0.00420000       0.10730000      -0.03840000
C       -1.36450000      -0.60000000      -0.02590000
C       -2.08820000      -0.38870000      -1.28800000
N       -0.99440000      -1.40330000      -1.28270000
C        0.21730000      -0.61070000      -1.37590000
N        1.07410000      -0.64830000      -2.29080000
H        0.03870000       1.85950000       0.79850000
H        0.65850000      -0.31570000       0.73040000
H       -1.80250000      -1.10220000       0.82890000
H       -3.06950000      -0.83930000      -1.39140000
H       -1.93920000       0.52960000      -1.84890000
H        1.82540000       0.01740000      -2.09780000
