15
Properties=species:S:1:pos:R:3 gdb_131444=T pbc="F F F"
O        0.10430000       1.35460000       0.09370000
C        0.11870000       0.01140000       0.07990000
N        0.30920000      -0.66740000      -1.03710000
O        0.25970000      -2.03010000      -0.68200000
C        0.07620000      -2.08060000       0.64360000
C       -0.03160000      -0.85320000       1.19270000
N       -0.38020000      -0.88680000       2.55800000
C       -0.11620000      -2.31160000       2.94880000
C       -0.18830000      -3.16560000       1.63420000
H        0.24000000       1.65510000      -0.81530000
H        0.13920000      -0.23670000       3.13610000
H        0.88790000      -2.41170000       3.38140000
H       -0.84360000      -2.63890000       3.69490000
H       -1.18330000      -3.60590000       1.49060000
H        0.53750000      -3.98320000       1.63700000
