17
Properties=species:S:1:pos:R:3 gdb_93614=T pbc="F F F"
C       -0.35590000       1.37140000      -0.32450000
C       -0.19420000      -0.08010000       0.13580000
O        0.15620000      -0.96780000      -0.91990000
C        1.56960000      -1.14080000      -0.92550000
C        1.97200000      -1.18490000       0.56300000
C        3.35050000      -0.86560000       0.86400000
C        4.49570000      -0.58530000       1.09460000
C        0.92700000      -0.21440000       1.17450000
O        0.98150000       0.33800000       2.23580000
H        0.56560000       1.75000000      -0.77720000
H       -1.15840000       1.44070000      -1.06270000
H       -0.60050000       2.00300000       0.53390000
H       -1.13490000      -0.43660000       0.57150000
H        1.79080000      -2.06460000      -1.46220000
H        2.08110000      -0.30850000      -1.43000000
H        1.71410000      -2.17790000       0.96000000
H        5.50690000      -0.34120000       1.30800000
