23
Properties=species:S:1:pos:R:3 gdb_115385=T pbc="F F F"
C       -0.16220000       1.61840000       0.00440000
C       -0.05810000       0.08920000      -0.02920000
C        0.72930000      -0.46590000      -1.22250000
C        2.21840000      -0.10060000      -1.18930000
O        2.91970000      -0.71250000      -2.26390000
C        2.77430000      -2.11630000      -2.33240000
C        3.58270000      -2.85050000      -1.25730000
O        1.41760000      -2.51060000      -2.36320000
C        0.63670000      -1.99400000      -1.29480000
H        0.81790000       2.09360000       0.11220000
H       -0.61770000       2.00270000      -0.91480000
H       -0.77950000       1.94910000       0.84510000
H        0.39740000      -0.26840000       0.90460000
H       -1.06970000      -0.33710000      -0.05190000
H        0.31040000      -0.06520000      -2.15510000
H        2.37740000       0.97360000      -1.31230000
H        2.65050000      -0.38930000      -0.21640000
H        3.16270000      -2.38580000      -3.31930000
H        3.24540000      -2.62660000      -0.24270000
H        3.49730000      -3.92910000      -1.41350000
H        4.63460000      -2.56350000      -1.33670000
H        0.94260000      -2.43370000      -0.33090000
H       -0.38930000      -2.31970000      -1.49100000
