14
Properties=species:S:1:pos:R:3 gdb_124130=T pbc="F F F"
C       -0.12740000       1.45660000      -0.03220000
C       -0.01820000       0.00830000      -0.01530000
C        0.06980000      -1.19450000      -0.00130000
C        0.17700000      -2.59680000       0.01470000
C        1.25250000      -3.43880000      -0.01090000
C        0.65560000      -4.72380000       0.02800000
O        1.32060000      -5.88850000       0.02120000
N       -0.65570000      -4.67350000       0.07280000
O       -0.97110000      -3.31740000       0.06480000
H        0.86210000       1.92470000      -0.00110000
H       -0.63510000       1.80290000      -0.93910000
H       -0.69820000       1.81810000       0.83010000
H        2.29720000      -3.18620000      -0.05070000
H        0.66580000      -6.59910000       0.05390000
