18
Properties=species:S:1:pos:R:3 gdb_28213=T pbc="F F F"
C        0.02990000       1.45060000       0.01140000
C       -0.01700000      -0.04010000      -0.02550000
N       -0.11030000      -0.77810000      -1.12600000
C       -0.03730000      -2.05980000      -0.66630000
C        0.11470000      -2.13060000       0.68330000
C       -0.02750000      -3.53410000       1.17350000
C        0.16240000      -4.27800000      -0.19680000
N       -0.24740000      -3.31750000      -1.26170000
N        0.08140000      -0.81430000       1.10620000
H        1.04740000       1.82940000       0.17200000
H       -0.32350000       1.83610000      -0.94610000
H       -0.60390000       1.85870000       0.80660000
H        0.71110000      -3.87230000       1.90820000
H       -1.02320000      -3.73400000       1.59660000
H        1.22290000      -4.54760000      -0.30140000
H       -0.43110000      -5.19380000      -0.25580000
H        0.25200000      -3.46090000      -2.13170000
H        0.20790000      -0.46630000       2.04120000
