16
Properties=species:S:1:pos:R:3 gdb_126004=T pbc="F F F"
C        0.17940000       1.53580000       0.04640000
C        0.06880000       0.02750000      -0.01840000
C        0.79900000      -0.64170000      -1.22660000
N        1.38460000      -1.77850000      -0.54940000
N        2.09190000      -2.87380000      -0.92280000
N        2.45510000      -3.45030000       0.18970000
C        2.01000000      -2.74260000       1.27840000
C        1.32570000      -1.65950000       0.78760000
O        0.67430000      -0.55130000       1.18600000
H        1.22810000       1.84600000       0.06090000
H       -0.30730000       1.98540000      -0.82490000
H       -0.30990000       1.91570000       0.94650000
H       -0.98200000      -0.28480000      -0.01350000
H        0.10480000      -0.94130000      -2.01410000
H        1.57270000       0.00450000      -1.65630000
H        2.20710000      -3.05670000       2.28790000
