23
Properties=species:S:1:pos:R:3 gdb_39493=T pbc="F F F"
C       -0.00680000       1.48220000      -0.41020000
C        1.24790000       0.70670000      -0.03070000
C        2.05780000       0.99110000       1.24230000
C        1.78540000       0.07700000       2.46290000
C        0.72650000       0.58510000       3.46830000
C       -0.52230000       1.25780000       2.87890000
C       -1.40520000       0.36320000       1.99930000
O       -0.70740000      -0.48760000       1.10650000
C       -0.10500000       0.02730000      -0.04360000
H       -0.36020000       2.22660000       0.29170000
H       -0.16530000       1.75800000      -1.44770000
H        1.87240000       0.42940000      -0.87550000
H        3.11130000       0.87240000       0.96870000
H        1.95910000       2.04390000       1.53580000
H        1.51160000      -0.91740000       2.10460000
H        2.72420000      -0.04100000       3.01700000
H        0.42400000      -0.25080000       4.11200000
H        1.20120000       1.31940000       4.13180000
H       -1.15330000       1.62290000       3.69980000
H       -0.21680000       2.15380000       2.32920000
H       -1.96670000      -0.32850000       2.63760000
H       -2.13760000       0.97630000       1.45340000
H       -0.27680000      -0.66140000      -0.86710000
