18
Properties=species:S:1:pos:R:3 gdb_97113=T pbc="F F F"
C        0.08150000       1.50970000       0.09120000
N        0.16660000       0.05990000      -0.01890000
C        0.53850000      -0.60870000       0.96450000
O        0.92210000      -0.21970000       2.23970000
C        1.09280000      -1.60070000       2.66490000
C        0.74840000      -2.10120000       1.23280000
C       -0.37690000      -2.99580000       1.06440000
C       -1.31610000      -3.73800000       0.93810000
C       -2.45490000      -4.62880000       0.77280000
H        0.76900000       1.96430000      -0.63060000
H       -0.92910000       1.82800000      -0.18630000
H        0.31320000       1.89830000       1.08960000
H        2.11250000      -1.78610000       3.00990000
H        0.36550000      -1.87170000       3.43270000
H        1.63080000      -2.47440000       0.70230000
H       -2.18940000      -5.50810000       0.17580000
H       -2.82570000      -4.98380000       1.74070000
H       -3.28270000      -4.12030000       0.26650000
