19
Properties=species:S:1:pos:R:3 gdb_30362=T pbc="F F F"
C       -0.10300000       1.57530000      -0.04130000
C        0.03090000       0.05170000       0.01570000
C        0.83150000      -0.55540000      -1.17780000
C        1.50960000      -1.83190000      -0.62490000
N        1.62100000      -1.51170000       0.79160000
C        2.27100000      -1.97440000       1.89330000
N        1.92970000      -1.28990000       2.96710000
C        1.01140000      -0.35310000       2.53980000
C        0.80630000      -0.47730000       1.18920000
H        0.88210000       2.05270000      -0.04080000
H       -0.63740000       1.88760000      -0.94460000
H       -0.65910000       1.95220000       0.82240000
H       -0.97990000      -0.38220000       0.01990000
H        0.20470000      -0.76310000      -2.04830000
H        1.60330000       0.15830000      -1.48520000
H        0.88640000      -2.72290000      -0.76910000
H        2.48880000      -2.02560000      -1.07050000
H        2.97830000      -2.78940000       1.85970000
H        0.56680000       0.34770000       3.22970000
