15
Properties=species:S:1:pos:R:3 gdb_35118=T pbc="F F F"
N       -0.37100000      -1.08640000      -0.82360000
C       -0.22640000      -0.03230000      -0.37440000
C       -0.00380000       1.32280000       0.16880000
N       -0.56350000       1.39330000       1.51700000
C        0.11400000       1.91840000       2.44740000
O        1.36510000       2.42570000       2.44090000
C        2.10640000       2.32290000       1.24610000
C        2.53260000       0.96510000       0.77100000
C        1.45980000       1.73250000       0.02830000
H       -0.60180000       2.00420000      -0.45110000
H       -0.31240000       2.01060000       3.44370000
H        2.77570000       3.16960000       1.15790000
H        3.50720000       0.86190000       0.30890000
H        2.21640000       0.11250000       1.36330000
H        1.72170000       2.15780000      -0.93430000
