16
Properties=species:S:1:pos:R:3 gdb_11781=T pbc="F F F"
O       -0.04260000      -0.05860000       0.03840000
C        0.04200000       1.13710000       0.17290000
C        1.30910000       1.91380000       0.06710000
C        2.68550000       1.29430000      -0.31630000
C        2.99690000       2.78370000      -0.60000000
C        1.54630000       2.92540000      -1.12060000
O        2.93820000       3.39430000       0.70000000
C        1.73280000       2.81800000       1.24430000
H       -0.86400000       1.75600000       0.37430000
H        3.26480000       0.80280000       0.46740000
H        2.62450000       0.67320000      -1.21010000
H        3.87340000       3.14100000      -1.13680000
H        1.37830000       2.46330000      -2.09420000
H        1.08540000       3.91360000      -1.05970000
H        1.00460000       3.60330000       1.47900000
H        1.95980000       2.25220000       2.15480000
