20
Properties=species:S:1:pos:R:3 gdb_65480=T pbc="F F F"
C       -0.20940000       1.61100000      -0.02750000
C       -0.03700000       0.08670000      -0.00310000
C        1.15410000      -0.41230000      -0.90070000
C        1.99820000      -0.55430000       0.37080000
C        3.20730000      -1.40810000       0.59060000
C        3.32760000       0.09940000       0.62040000
C        0.75430000      -0.42310000       1.25670000
C       -1.31060000      -0.58140000      -0.24250000
N       -2.31690000      -1.11960000      -0.43160000
H        0.75590000       2.09240000       0.15380000
H       -0.58690000       1.94690000      -0.99760000
H       -0.91010000       1.93810000       0.74620000
H        0.93740000      -1.36890000      -1.38280000
H        1.49230000       0.30080000      -1.65750000
H        3.28830000      -1.94620000       1.52980000
H        3.62040000      -1.93730000      -0.26240000
H        3.82170000       0.58910000      -0.21300000
H        3.48950000       0.58020000       1.58030000
H        0.79760000       0.28200000       2.09130000
H        0.38100000      -1.38390000       1.62000000
