18
Properties=species:S:1:pos:R:3 gdb_112957=T pbc="F F F"
N        0.08370000       1.01900000      -0.03150000
H        0.57750000      -0.54190000       1.35770000
H        0.86080000       1.65320000      -0.18980000
H       -0.48630000       1.03560000      -0.86920000
C       -0.69060000       1.43240000       1.14490000
C        0.07120000       0.97000000       2.39840000
C       -0.68720000       1.19540000       3.71200000
C       -1.86080000       0.26170000       3.87540000
O        0.37510000      -0.40400000       2.29660000
C       -1.91970000      -0.78650000       4.87490000
O       -2.55190000       0.33130000       5.24330000
O       -1.69280000      -1.86180000       5.32180000
H       -0.88430000       2.51490000       1.20330000
H       -1.65940000       0.92460000       1.09320000
H        0.99950000       1.56890000       2.45320000
H        0.00010000       1.05440000       4.55060000
H       -1.04550000       2.23210000       3.75280000
H       -2.59440000       0.23830000       3.07240000
