12
Properties=species:S:1:pos:R:3 gdb_3999=T pbc="F F F"
O       -0.05920000       1.41880000       0.01020000
N        0.07200000       0.04690000       0.00140000
C       -1.05730000      -0.56280000       0.00900000
C       -1.03960000      -2.08150000       0.00050000
C        0.29760000      -2.67010000      -0.01530000
N        1.32960000      -3.18710000      -0.02780000
C       -2.33460000       0.06180000       0.02470000
C       -3.44130000       0.53460000       0.03800000
H        0.85820000       1.71710000       0.00300000
H       -1.58080000      -2.45330000       0.87920000
H       -1.59720000      -2.44370000      -0.87200000
H       -4.40890000       0.97400000       0.04970000
