22
Properties=species:S:1:pos:R:3 gdb_87714=T pbc="F F F"
C       -0.18720000       1.53160000       0.59390000
C       -0.17460000       0.02740000       0.48010000
N        0.92590000      -0.57050000      -0.30390000
C        0.85280000      -0.82590000       1.12950000
C        1.89990000      -0.45150000       2.18370000
C        1.30730000      -1.56560000       3.10460000
C        0.36860000      -1.04750000       4.18990000
C        0.57280000      -2.15130000       1.84800000
O       -0.74240000      -2.63960000       1.94360000
H        0.83020000       1.91850000       0.69180000
H       -0.63440000       1.98430000      -0.29750000
H       -0.76870000       1.85700000       1.46420000
H       -1.15450000      -0.43650000       0.36410000
H        0.59330000      -1.38350000      -0.81920000
H        2.91870000      -0.66370000       1.84890000
H        1.86490000       0.56810000       2.57700000
H        2.04380000      -2.24250000       3.54520000
H       -0.34740000      -0.31720000       3.79230000
H       -0.19900000      -1.86460000       4.64750000
H        0.93200000      -0.54370000       4.98160000
H        1.15340000      -2.96880000       1.40630000
H       -1.28660000      -1.94940000       2.33720000
