17
Properties=species:S:1:pos:R:3 gdb_25633=T pbc="F F F"
C        0.01960000       1.46470000       0.03550000
C        0.01370000       0.00930000       0.02900000
C       -0.00650000      -1.19940000       0.02340000
C       -0.00890000      -2.61210000       0.01500000
C        1.12440000      -3.40480000      -0.11970000
N        2.45940000      -3.05430000      -0.35410000
N        0.73380000      -4.71210000      -0.06770000
C       -0.63930000      -4.78810000       0.09500000
C       -1.12400000      -3.51160000       0.14320000
H        0.65290000       1.86580000       0.83590000
H        0.38720000       1.87480000      -0.91280000
H       -0.99100000       1.85910000       0.19130000
H        2.52910000      -2.04720000      -0.45280000
H        3.08000000      -3.34150000       0.39710000
H        1.34840000      -5.48920000      -0.23640000
H       -1.13430000      -5.74210000       0.16840000
H       -2.15430000      -3.22070000       0.27300000
