14
Properties=species:S:1:pos:R:3 gdb_64584=T pbc="F F F"
O       -0.08670000       1.38810000       0.05040000
C       -0.04880000       0.01350000       0.03750000
C        1.02100000      -0.56550000      -0.79310000
O        1.75680000       0.13980000      -1.44920000
C       -0.46990000      -0.73900000       1.28750000
O       -1.18650000       0.04950000       2.21370000
C       -2.33260000       0.40510000       1.57260000
N       -2.54330000      -0.05260000       0.40400000
C       -1.37140000      -0.81120000       0.07020000
H        0.54880000       1.66030000      -0.63120000
H        1.10260000      -1.67110000      -0.80320000
H        0.12350000      -1.51830000       1.74910000
H       -2.98470000       1.05980000       2.13500000
H       -1.49050000      -1.66380000      -0.58670000
