18
Properties=species:S:1:pos:R:3 gdb_18365=T pbc="F F F"
C       -0.00180000       1.57050000       0.01540000
C        0.08370000       0.04610000       0.00490000
C        0.96050000      -0.54040000      -1.11790000
O        1.33140000      -1.84900000      -0.68210000
C        1.48990000      -1.81190000       0.71930000
C        2.74980000      -1.09500000       1.25310000
O        1.97770000       0.06880000       1.62850000
C        0.73380000      -0.56830000       1.24740000
H        0.98170000       2.00240000       0.21880000
H       -0.35690000       1.95230000      -0.94740000
H       -0.69190000       1.92410000       0.78780000
H       -0.92010000      -0.38990000      -0.08020000
H        0.44180000      -0.64480000      -2.07410000
H        1.85060000       0.08830000      -1.27360000
H        1.27740000      -2.80450000       1.11800000
H        3.21920000      -1.56720000       2.12510000
H        3.51440000      -0.87100000       0.50050000
H        0.05760000      -0.67280000       2.10170000
