27
Properties=species:S:1:pos:R:3 gdb_58226=T pbc="F F F"
C       -0.09150000       1.58250000      -0.04070000
C       -0.09670000       0.04460000      -0.04890000
C       -1.54570000      -0.45880000      -0.13410000
C        0.80680000      -0.53350000      -1.17140000
C        2.25440000      -0.01670000      -1.06590000
C        0.79390000      -2.06760000      -1.24600000
C        1.19590000      -2.81700000       0.01360000
C       -0.22760000      -2.73380000      -2.13990000
C        1.21980000      -2.67920000      -2.56230000
H        0.89780000       1.99710000       0.16760000
H       -0.42640000       1.98070000      -1.00670000
H       -0.77440000       1.96390000       0.72570000
H        0.31830000      -0.28830000       0.91350000
H       -2.00900000      -0.16050000      -1.08260000
H       -1.61350000      -1.54640000      -0.06120000
H       -2.14810000      -0.02920000       0.67340000
H        0.39860000      -0.17230000      -2.12780000
H        2.89550000      -0.51770000      -1.79720000
H        2.31760000       1.05800000      -1.25310000
H        2.67600000      -0.20170000      -0.07140000
H        0.49710000      -2.63660000       0.83770000
H        1.21270000      -3.89610000      -0.16890000
H        2.19550000      -2.52770000       0.35640000
H       -0.63650000      -3.69020000      -1.82920000
H       -0.93370000      -2.10640000      -2.67310000
H        1.48440000      -2.01180000      -3.37670000
H        1.79790000      -3.59720000      -2.54090000
