21
Properties=species:S:1:pos:R:3 gdb_110617=T pbc="F F F"
C       -0.40320000       1.03710000       0.12300000
O        0.53630000       0.01390000      -0.13580000
C        0.94690000      -0.64630000       1.01960000
C        0.13120000      -1.71880000       1.69480000
C       -0.60960000      -2.57240000       0.69870000
C       -0.04800000      -3.97380000       0.67340000
C        0.69680000      -2.88010000      -0.05100000
C        0.95790000      -2.89710000      -1.53200000
C        1.46630000      -2.04100000       0.94820000
H        0.01510000       1.81430000       0.78120000
H       -0.66100000       1.48980000      -0.83720000
H       -1.31480000       0.64150000       0.59310000
H        1.48300000      -0.00030000       1.72110000
H       -0.03680000      -1.71540000       2.76730000
H       -1.57210000      -2.33690000       0.25880000
H        0.35220000      -4.41610000       1.58220000
H       -0.57390000      -4.67550000       0.03130000
H        0.15640000      -3.41690000      -2.06750000
H        1.02740000      -1.87800000      -1.92160000
H        1.89570000      -3.41700000      -1.76330000
H        2.42410000      -2.31050000       1.38220000
