19
Properties=species:S:1:pos:R:3 gdb_94452=T pbc="F F F"
C       -0.23430000       1.46380000       0.23580000
C        0.09840000       0.00370000       0.01040000
O        1.19410000      -0.19270000      -0.91630000
C        2.00730000      -0.83750000       0.07910000
C        0.88590000      -0.73860000       1.14310000
O        1.22280000       0.04940000       2.27540000
C        0.82620000      -0.60360000       3.48050000
C        0.25330000      -1.91860000       3.03600000
C        0.29450000      -1.99100000       1.71050000
H        0.62270000       2.00250000       0.64540000
H       -0.52550000       1.92520000      -0.71300000
H       -1.07020000       1.56140000       0.93660000
H       -0.79040000      -0.54610000      -0.33000000
H        2.30650000      -1.85070000      -0.21720000
H        2.89730000      -0.25320000       0.34160000
H        1.69950000      -0.72100000       4.13940000
H        0.09210000       0.01420000       4.02060000
H       -0.12780000      -2.66440000       3.72150000
H       -0.04650000      -2.80730000       1.08670000
