14
Properties=species:S:1:pos:R:3 gdb_131649=T pbc="F F F"
O        0.12390000       1.39710000       0.01850000
C        0.05170000      -0.01080000      -0.05410000
C       -1.37470000      -0.50780000      -0.08810000
C       -1.88930000      -1.32260000      -1.03470000
C       -3.25580000      -1.74820000      -0.96100000
N       -3.85060000      -2.54290000      -1.75630000
N       -4.00010000      -1.16970000       0.15440000
N       -3.59010000      -0.43810000       1.00940000
O       -2.07590000      -0.04660000       0.94740000
H       -0.37400000       1.67110000       0.79690000
H        0.55940000      -0.31560000      -0.97300000
H        0.56590000      -0.49070000       0.79450000
H       -1.28210000      -1.66240000      -1.86210000
H       -4.82500000      -2.66290000      -1.47610000
