18
Properties=species:S:1:pos:R:3 gdb_108692=T pbc="F F F"
C       -0.09290000       1.48680000      -0.04380000
N        0.15130000       0.05670000       0.02040000
C        0.61560000      -0.67770000      -1.01890000
C        0.66210000      -2.03010000      -1.18370000
C        1.35250000      -2.33960000      -2.48600000
O        1.60100000      -1.06570000      -3.09720000
C        1.25630000      -0.01930000      -2.21930000
C        0.15950000      -3.04620000      -0.30170000
O        0.24390000      -4.24580000      -0.50230000
H        0.76900000       2.00150000      -0.47670000
H       -0.98390000       1.74550000      -0.63270000
H       -0.22980000       1.86740000       0.97060000
H       -0.32770000      -0.44410000       0.75180000
H        2.30230000      -2.87520000      -2.34170000
H        0.73520000      -2.94720000      -3.16000000
H        0.57010000       0.68260000      -2.71870000
H        2.14770000       0.55980000      -1.92020000
H       -0.34490000      -2.67170000       0.62360000
