18
Properties=species:S:1:pos:R:3 gdb_84802=T pbc="F F F"
N       -0.31720000       0.63170000      -0.05940000
H       -0.99250000      -0.12230000      -0.15650000
H        1.12370000      -0.01120000       0.58860000
H       -0.37110000       1.18770000      -0.90610000
C       -0.64580000       1.45830000       1.13510000
C       -2.13420000       1.52390000       1.40430000
C       -2.48570000       0.75960000       2.43870000
C       -1.30040000       0.10480000       3.10190000
C       -0.09790000       0.86140000       2.46880000
C        1.19590000       0.03350000       2.49080000
O        1.69220000      -0.28130000       3.54310000
O        1.72750000      -0.31990000       1.32000000
H       -0.19710000       2.43900000       0.94940000
H       -2.81310000       2.07460000       0.76200000
H       -3.50400000       0.59530000       2.77430000
H       -1.30260000       0.19920000       4.19110000
H       -1.27460000      -0.97310000       2.89120000
H        0.11000000       1.71310000       3.12300000
