18
Properties=species:S:1:pos:R:3 gdb_30213=T pbc="F F F"
O        0.00370000       1.39780000      -0.09990000
C        0.00840000      -0.01170000       0.04000000
C        0.62820000      -0.53210000       1.37620000
C       -0.15280000      -1.79310000       1.60310000
C       -0.11860000      -2.95810000       2.32670000
N       -1.26080000      -3.65930000       2.00160000
C       -2.01560000      -2.96190000       1.08120000
C       -1.34210000      -1.79560000       0.82190000
C       -1.45050000      -0.54010000       0.00750000
H        0.91590000       1.69410000      -0.17510000
H        0.55850000      -0.47760000      -0.79270000
H        1.71270000      -0.66940000       1.30300000
H        0.44320000       0.21540000       2.15980000
H        0.59300000      -3.35940000       3.03040000
H       -1.49520000      -4.56750000       2.36140000
H       -2.94260000      -3.36740000       0.70830000
H       -2.10050000       0.20790000       0.48090000
H       -1.80970000      -0.68050000      -1.01610000
