19
Properties=species:S:1:pos:R:3 gdb_101491=T pbc="F F F"
O        0.01880000       1.43180000      -0.08670000
C        0.06260000       0.03310000       0.09490000
C       -1.34670000      -0.56190000      -0.00070000
O       -1.95960000      -0.13770000      -1.21430000
C       -1.36510000      -2.08570000       0.09790000
C       -2.78410000      -2.72060000       0.03780000
O       -2.77520000      -3.51400000      -1.14560000
C       -1.42580000      -3.78220000      -1.40690000
O       -0.71650000      -2.60920000      -1.06920000
H       -0.57580000       1.57170000      -0.83530000
H        0.71160000      -0.45710000      -0.64880000
H        0.48940000      -0.15660000       1.08660000
H       -1.95740000      -0.14300000       0.80840000
H       -1.61460000      -0.72790000      -1.89880000
H       -0.82860000      -2.41040000       1.00040000
H       -2.97870000      -3.33910000       0.92370000
H       -3.57110000      -1.97090000      -0.06500000
H       -1.06130000      -4.63210000      -0.80080000
H       -1.29390000      -3.99000000      -2.47180000
