17
Properties=species:S:1:pos:R:3 gdb_127491=T pbc="F F F"
C        0.19380000       1.36590000       0.03350000
N        0.10760000      -0.07850000       0.07120000
N        0.10970000      -0.79710000      -1.09190000
C       -0.02240000      -2.04130000      -0.64850000
N       -0.13190000      -3.12990000      -1.49180000
N       -0.09250000      -2.16950000       0.70580000
C       -0.01620000      -0.91110000       1.12320000
C       -0.05860000      -0.48340000       2.55960000
O        1.04200000       0.33650000       2.94110000
H        0.95060000       1.65480000      -0.69880000
H       -0.76420000       1.80680000      -0.26140000
H        0.48510000       1.72320000       1.02100000
H        0.27230000      -2.97810000      -2.40430000
H        0.17410000      -3.99150000      -1.06440000
H       -0.95000000       0.12090000       2.75960000
H       -0.12940000      -1.39390000       3.16620000
H        1.84730000      -0.17240000       2.79740000
