17
Properties=species:S:1:pos:R:3 gdb_1913=T pbc="F F F"
C        0.00540000       1.54460000       0.06650000
C        0.04090000       0.04550000      -0.00200000
C       -0.86990000      -0.84790000       0.79000000
C        0.61800000      -0.97260000       0.99610000
C        1.23670000      -1.76720000      -0.14310000
O        0.82550000      -3.11850000      -0.18220000
C        0.61520000      -0.76180000      -1.17670000
H        0.97650000       1.98090000      -0.19550000
H       -0.73860000       1.95670000      -0.62650000
H       -0.25630000       1.88990000       1.07240000
H       -1.39990000      -0.36530000       1.60540000
H       -1.41960000      -1.65460000       0.31300000
H        1.07650000      -0.80660000       1.96390000
H        2.33250000      -1.69220000      -0.13790000
H        1.21670000      -3.52780000      -0.96060000
H       -0.11880000      -1.18850000      -1.86870000
H        1.37710000      -0.22430000      -1.74840000
