17
Properties=species:S:1:pos:R:3 gdb_91860=T pbc="F F F"
C        0.15300000       1.52960000      -0.10730000
C        0.08970000       0.02530000      -0.02530000
O        0.85460000      -0.56920000      -1.07260000
C        1.29100000      -1.80970000      -0.59140000
C        2.52350000      -1.80610000       0.25250000
C        1.15860000      -1.72680000       0.92300000
O        0.67430000      -0.43870000       1.19270000
C        0.62270000      -2.84370000       1.72930000
O        1.02440000      -3.98060000       1.65240000
H        1.19210000       1.85990000      -0.04190000
H       -0.27400000       1.86750000      -1.05470000
H       -0.41810000       1.96980000       0.71370000
H       -0.94810000      -0.34620000      -0.08620000
H        0.97800000      -2.68450000      -1.15120000
H        3.04190000      -2.75110000       0.37650000
H        3.11840000      -0.90130000       0.27460000
H       -0.19940000      -2.54490000       2.41470000
