19
Properties=species:S:1:pos:R:3 gdb_65977=T pbc="F F F"
C       -0.06610000       1.52210000       0.18150000
C        0.02240000       0.00020000       0.02300000
C        1.00630000      -0.46620000      -1.11180000
C        2.05800000      -0.92130000      -0.05590000
C        1.01830000      -0.63000000       1.03460000
O        0.95670000      -0.84030000       2.21080000
C       -1.32910000      -0.68300000       0.00930000
C       -2.51500000      -0.19350000       0.72160000
O       -2.39650000      -0.04310000      -0.69670000
H        0.91640000       1.98510000       0.05130000
H       -0.74810000       1.93390000      -0.56720000
H       -0.42980000       1.79410000       1.17640000
H        0.61030000      -1.29230000      -1.70610000
H        1.32890000       0.32630000      -1.78820000
H        2.39940000      -1.95900000      -0.10060000
H        2.94020000      -0.27800000       0.02270000
H       -1.27740000      -1.75850000      -0.17240000
H       -3.26710000      -0.90720000       1.05420000
H       -2.46970000       0.73010000       1.29320000
