12
Properties=species:S:1:pos:R:3 gdb_130749=T pbc="F F F"
O       -0.01770000      -0.03050000       0.00430000
C        0.03560000       1.16100000       0.00840000
O       -1.08250000       1.97170000       0.02890000
C       -0.75370000       3.38120000       0.03150000
C        0.73930000       3.39220000       0.01100000
C        1.16420000       2.11110000      -0.00150000
O        2.49120000       2.01770000      -0.01940000
N        2.98980000       3.32630000      -0.01960000
C        1.94690000       4.13200000      -0.00180000
H       -1.21440000       3.84050000      -0.84890000
H       -1.18990000       3.83150000       0.92900000
H        2.12240000       5.19800000       0.00130000
