17
Properties=species:S:1:pos:R:3 gdb_77193=T pbc="F F F"
C       -0.04050000       1.60740000      -0.04420000
C        0.13850000       0.10200000      -0.01850000
C        1.16620000      -0.55580000      -0.99830000
C        1.53940000      -1.56870000       0.12450000
C        0.89890000      -0.59830000       1.16920000
C        1.87310000       0.25480000       1.83360000
N        2.65200000       0.93990000       2.34490000
C        0.67010000      -1.07260000      -2.26090000
N        0.25090000      -1.49330000      -3.25300000
H        0.91160000       2.12640000       0.10020000
H       -0.46290000       1.92210000      -1.00370000
H       -0.72380000       1.93340000       0.74640000
H       -0.82460000      -0.40380000      -0.12950000
H        1.99800000       0.12970000      -1.18810000
H        0.96170000      -2.49060000       0.04620000
H        2.59590000      -1.80550000       0.24400000
H        0.26160000      -1.06350000       1.92380000
