12
Properties=species:S:1:pos:R:3 gdb_131989=T pbc="F F F"
N        0.02380000       1.38340000       0.13690000
C        0.02610000       0.03240000       0.04360000
N       -1.07630000      -0.69340000       0.01810000
O       -0.63740000      -2.04220000      -0.02190000
C        0.67870000      -2.08730000      -0.02480000
C        1.18160000      -0.82110000       0.01140000
N        2.55270000      -0.44520000      -0.00950000
O        3.39330000      -1.33580000      -0.00720000
O        2.80290000       0.76360000      -0.03530000
H        0.89550000       1.84180000      -0.07670000
H       -0.83710000       1.86290000      -0.06890000
H        1.15500000      -3.05430000      -0.05740000
