17
Properties=species:S:1:pos:R:3 gdb_98651=T pbc="F F F"
O        0.52040000       1.20680000      -0.20550000
C        0.19070000      -0.14640000      -0.18840000
C       -1.27520000      -0.36710000       0.13900000
O       -1.99100000       0.59310000       0.34510000
C       -1.79480000      -1.78120000       0.19710000
C       -2.58940000      -2.15140000       1.49810000
C       -3.69170000      -2.71900000       0.59250000
O       -4.60670000      -3.46500000       0.77050000
C       -3.08390000      -2.05820000      -0.65290000
H       -0.30580000       1.67130000       0.00460000
H        0.39580000      -0.62740000      -1.16100000
H        0.79000000      -0.70190000       0.55440000
H       -1.00230000      -2.50160000      -0.01640000
H       -2.12480000      -2.83520000       2.21110000
H       -2.93420000      -1.25240000       2.01950000
H       -3.60450000      -1.12600000      -0.89610000
H       -2.98960000      -2.67230000      -1.55060000
