9
Properties=species:S:1:pos:R:3 gdb_133481=T pbc="F F F"
F        0.37670000       0.14420000       0.20190000
C       -0.02990000       1.40080000       0.01640000
F        1.04650000       2.15730000      -0.20190000
F       -0.81470000       1.44730000      -1.05360000
C       -0.76800000       1.89090000       1.23570000
N       -1.99950000       2.30360000       1.24330000
O       -2.22730000       2.63530000       2.52680000
N       -1.06610000       2.39550000       3.27230000
N       -0.19480000       1.94840000       2.48720000
