21
Properties=species:S:1:pos:R:3 gdb_39410=T pbc="F F F"
C        0.09240000       1.46210000      -0.12220000
C        1.26300000       0.54740000      -0.02820000
C        2.30050000       0.59420000       1.05400000
N        1.90990000       0.72190000       2.46850000
C        2.46950000      -0.55600000       1.98240000
C        1.56970000      -1.77950000       1.87660000
C        0.04480000      -1.59020000       2.05280000
C       -0.58860000      -0.31360000       1.47640000
N       -0.09990000       0.03600000       0.13690000
H       -0.06210000       2.14320000       0.71360000
H       -0.24690000       1.83280000      -1.08660000
H        1.70930000       0.22060000      -0.96930000
H        3.20950000       1.10900000       0.74360000
H        2.61660000       1.24720000       2.97530000
H        3.49150000      -0.78180000       2.28280000
H        1.76240000      -2.23000000       0.89470000
H        1.89970000      -2.52330000       2.61140000
H       -0.43820000      -2.47300000       1.61900000
H       -0.19770000      -1.60180000       3.12140000
H       -1.66950000      -0.47280000       1.37830000
H       -0.43730000       0.50380000       2.18710000
