18
Properties=species:S:1:pos:R:3 gdb_11504=T pbc="F F F"
C       -0.01220000       1.48940000      -0.27450000
C        0.01640000      -0.00320000       0.10870000
C        0.69730000      -0.27600000       1.47660000
C        2.16930000       0.06700000       1.48820000
C        3.12050000      -0.73250000       2.29720000
N        3.14660000      -0.81590000       0.82460000
C       -1.34430000      -0.55090000       0.11930000
N       -2.41730000      -0.98000000       0.14310000
H        1.00540000       1.87420000      -0.37250000
H       -0.52490000       1.63500000      -1.22810000
H       -0.53580000       2.07470000       0.48710000
H        0.57290000      -0.54910000      -0.66420000
H        0.17240000       0.29630000       2.25130000
H        0.57060000      -1.33520000       1.72920000
H        2.40000000       1.12150000       1.35160000
H        3.98910000      -0.25820000       2.74440000
H        2.72570000      -1.57500000       2.85960000
H        2.68820000      -1.67590000       0.52890000
