14
Properties=species:S:1:pos:R:3 gdb_19512=T pbc="F F F"
O       -0.00870000      -0.03010000      -0.30330000
C        0.01560000       1.10770000       0.10160000
C        1.24030000       1.94520000       0.08120000
C        1.18310000       3.45820000      -0.16910000
O       -0.08020000       4.06660000      -0.05310000
C       -0.24200000       4.33180000       1.33210000
O        0.46760000       3.31690000       2.02630000
C        1.53930000       2.97080000       1.18300000
H       -0.88920000       1.59120000       0.51570000
H        2.10970000       1.44130000      -0.32970000
H        1.86180000       3.91970000      -0.87720000
H        0.16580000       5.32460000       1.58260000
H       -1.30210000       4.26890000       1.58870000
H        2.52370000       3.01410000       1.63490000
