17
Properties=species:S:1:pos:R:3 gdb_125122=T pbc="F F F"
C        0.19930000       1.53450000       0.04510000
C        0.10480000       0.03910000       0.02980000
C        0.13090000      -0.80510000      -1.06200000
O        0.24520000      -0.59570000      -2.39220000
N        0.02330000      -2.07410000      -0.60730000
N       -0.06900000      -2.12990000       0.74550000
C       -0.02850000      -0.85680000       1.12780000
C       -0.08720000      -0.50730000       2.58330000
O        1.05330000       0.23430000       3.01840000
H        0.77400000       1.91610000      -0.80860000
H       -0.78340000       2.02240000       0.01770000
H        0.70700000       1.86670000       0.95400000
H        0.28000000       0.35380000      -2.54890000
H        0.01960000      -2.91800000      -1.15390000
H       -0.94320000       0.14240000       2.79650000
H       -0.21770000      -1.43330000       3.15940000
H        1.82960000      -0.29450000       2.80550000
