21
Properties=species:S:1:pos:R:3 gdb_111005=T pbc="F F F"
C       -0.10860000       1.57350000      -0.03820000
C       -0.16510000       0.04210000      -0.09500000
C        0.66610000      -0.53020000      -1.23870000
C        2.21210000      -0.65370000      -1.09420000
C        1.99630000      -1.94950000      -0.27960000
C        0.82730000      -2.08140000      -1.31750000
O       -0.29530000      -2.88420000      -1.15620000
C        1.64730000      -2.19000000      -2.61820000
O        2.61540000      -1.14630000      -2.39020000
H        0.91120000       1.93150000       0.14040000
H       -0.45290000       2.01760000      -0.97860000
H       -0.74260000       1.96120000       0.76510000
H        0.14660000      -0.36850000       0.87080000
H       -1.20330000      -0.28250000      -0.23540000
H        0.36260000      -0.06090000      -2.18180000
H        2.86690000       0.15900000      -0.78790000
H        2.80270000      -2.68690000      -0.30740000
H        1.64750000      -1.79110000       0.73930000
H       -0.02450000      -3.80830000      -1.19240000
H        2.15000000      -3.15960000      -2.73740000
H        1.05150000      -1.98210000      -3.51470000
