15
Properties=species:S:1:pos:R:3 gdb_49867=T pbc="F F F"
N       -0.13910000       1.31420000       0.00780000
C       -0.06060000       0.05470000       0.00060000
C       -1.25560000      -0.87370000       0.00360000
C       -0.69390000      -2.28410000      -0.00800000
O       -1.30710000      -3.31560000      -0.00970000
C        0.83710000      -2.19200000      -0.01730000
N        1.11570000      -0.75840000      -0.01170000
C        2.40280000      -0.27570000      -0.01820000
O        2.71700000       0.89330000      -0.01430000
H        0.78940000       1.73740000       0.00390000
H       -1.88330000      -0.71540000       0.88610000
H       -1.89520000      -0.70580000      -0.86850000
H        1.24170000      -2.70190000       0.86460000
H        1.23050000      -2.69290000      -0.90930000
H        3.14790000      -1.09460000      -0.02790000
