21
Properties=species:S:1:pos:R:3 gdb_95494=T pbc="F F F"
C        0.02270000       1.59000000      -0.05830000
C       -0.02050000       0.07760000       0.00190000
C       -1.20860000      -0.54790000       0.01290000
C       -1.51350000      -2.02310000       0.06530000
O       -2.84780000      -2.25460000      -0.39410000
C       -0.52350000      -2.90780000      -0.70760000
C        0.85290000      -3.07180000      -0.06080000
C        1.68480000      -1.83230000       0.09860000
C        1.30830000      -0.54610000       0.09640000
H        0.58950000       1.93200000      -0.93320000
H       -0.97870000       2.02310000      -0.11020000
H        0.52850000       2.00440000       0.82280000
H       -2.10870000       0.06350000      -0.01030000
H       -1.53680000      -2.35660000       1.11260000
H       -2.89670000      -1.93200000      -1.30110000
H       -0.98830000      -3.89410000      -0.80610000
H       -0.40600000      -2.50300000      -1.72100000
H        0.74900000      -3.55740000       0.92190000
H        1.42840000      -3.78820000      -0.66220000
H        2.74810000      -2.02420000       0.23330000
H        2.11270000       0.17940000       0.20890000
