22
Properties=species:S:1:pos:R:3 gdb_26403=T pbc="F F F"
C       -0.05340000       1.58430000       0.00350000
C        0.03270000       0.05310000       0.03670000
C        0.86750000      -0.42210000       1.23160000
C       -1.38640000      -0.56750000       0.03040000
C       -1.42630000      -2.06420000      -0.10350000
C       -1.41550000      -2.77980000      -1.28280000
N       -1.43970000      -4.11750000      -0.97610000
C       -1.47060000      -4.27980000       0.38450000
C       -1.46350000      -3.02690000       0.95120000
H        0.94290000       2.03790000      -0.02870000
H       -0.61170000       1.93660000      -0.87070000
H       -0.56140000       1.96630000       0.89750000
H        0.53560000      -0.28200000      -0.88140000
H        0.41390000      -0.09810000       2.17690000
H        0.94700000      -1.51220000       1.25520000
H        1.88050000      -0.00710000       1.19310000
H       -1.90140000      -0.26850000       0.95340000
H       -1.95260000      -0.11370000      -0.79280000
H       -1.39900000      -2.44510000      -2.30830000
H       -1.45140000      -4.86390000      -1.64820000
H       -1.50240000      -5.26210000       0.82770000
H       -1.48830000      -2.81090000       2.00890000
