21
Properties=species:S:1:pos:R:3 gdb_117176=T pbc="F F F"
C       -0.03440000       1.50220000      -0.22270000
C        0.00500000      -0.00360000      -0.04750000
O        0.65010000      -0.56140000      -1.20970000
C        0.80010000      -1.90060000      -1.21570000
O        0.41390000      -2.61830000      -0.32440000
C        1.52190000      -2.36390000      -2.46780000
C        2.98470000      -1.88150000      -2.46350000
C        1.41740000      -3.88300000      -2.59760000
O        1.99390000      -4.24130000      -3.84580000
H        0.97590000       1.91160000      -0.31110000
H       -0.59600000       1.77680000      -1.12000000
H       -0.51910000       1.96430000       0.64250000
H        0.56490000      -0.29930000       0.84530000
H       -0.99810000      -0.43290000       0.04040000
H        1.01660000      -1.90900000      -3.32830000
H        3.51840000      -2.27020000      -1.58910000
H        3.48930000      -2.24550000      -3.36040000
H        3.03580000      -0.79090000      -2.44070000
H        1.94010000      -4.35900000      -1.75570000
H        0.36290000      -4.18730000      -2.53920000
H        1.98800000      -5.20000000      -3.91270000
