14
Properties=species:S:1:pos:R:3 gdb_42289=T pbc="F F F"
N       -0.09680000       1.35640000       0.01300000
C        0.01290000       0.08960000       0.00240000
C       -1.18140000      -0.73910000       0.00770000
N       -2.09910000      -1.44110000       0.01070000
N        1.18940000      -0.65200000      -0.01380000
C        1.49440000      -2.09910000      -0.02700000
C        3.00220000      -1.71210000      -0.03780000
C        2.52910000      -0.24970000      -0.02300000
O        3.01910000       0.84440000      -0.01950000
H        0.82690000       1.79600000       0.00800000
H        1.14780000      -2.62210000       0.86670000
H        1.13170000      -2.60910000      -0.92180000
H        3.57020000      -2.00430000       0.84660000
H        3.55420000      -1.99150000      -0.93650000
