21
Properties=species:S:1:pos:R:3 gdb_118680=T pbc="F F F"
C       -0.05080000       1.48000000      -0.13560000
C        0.03950000      -0.02200000       0.01400000
C        1.37450000      -0.74580000      -0.07220000
O        2.56610000      -0.00230000      -0.12570000
C        0.65910000      -0.65330000       1.25450000
O        1.25080000       0.20370000       2.19150000
C        0.02650000      -1.86630000       1.89270000
C        1.02400000      -2.71200000       2.67760000
O        0.31810000      -3.82510000       3.20940000
H        0.68540000       1.98560000       0.49250000
H        0.09820000       1.79670000      -1.17510000
H       -1.03870000       1.83430000       0.17460000
H       -0.79000000      -0.57440000      -0.42110000
H        1.42370000      -1.70150000      -0.59210000
H        2.53050000       0.59150000      -0.88270000
H        2.10040000       0.46890000       1.81040000
H       -0.77510000      -1.54810000       2.57000000
H       -0.43870000      -2.48800000       1.11960000
H        1.83930000      -3.03880000       2.01120000
H        1.47230000      -2.09840000       3.47060000
H        0.91980000      -4.31670000       3.77560000
