17
Properties=species:S:1:pos:R:3 gdb_88240=T pbc="F F F"
O       -0.00870000       1.16550000      -0.52020000
C       -0.04900000      -0.15120000      -0.08100000
C       -0.35550000      -0.36900000       1.36230000
C       -1.39480000      -0.76330000       0.31160000
C       -2.57870000       0.01430000       0.11990000
C       -3.55930000       0.68470000      -0.09350000
C       -4.74780000       1.45630000      -0.32740000
C       -4.74260000       2.93190000      -0.27730000
O       -4.80180000       2.25460000      -1.52570000
H       -0.62310000       1.25940000      -1.25740000
H        0.65720000      -0.82480000      -0.56580000
H        0.14190000      -1.17170000       1.89430000
H       -0.56790000       0.52030000       1.94290000
H       -1.50150000      -1.82790000       0.12390000
H       -5.68600000       0.95060000      -0.10080000
H       -5.64980000       3.45570000       0.02190000
H       -3.80760000       3.44650000      -0.06400000
