15
Properties=species:S:1:pos:R:3 gdb_126830=T pbc="F F F"
C        0.09530000       1.55420000       0.01230000
C       -0.05830000       0.03620000      -0.05630000
N        0.65560000      -0.53630000      -1.19280000
N        0.03200000      -1.03720000      -2.25570000
N        0.96390000      -1.42900000      -3.08070000
C        2.15070000      -1.14230000      -2.47360000
N        1.97470000      -0.57460000      -1.27580000
C        3.41730000      -1.41550000      -3.04060000
C        4.48560000      -1.65360000      -3.53630000
H        1.14790000       1.83080000       0.10600000
H       -0.31410000       2.02740000      -0.88430000
H       -0.44420000       1.93660000       0.88310000
H        0.33160000      -0.44100000       0.84640000
H       -1.10000000      -0.26040000      -0.18870000
H        5.43080000      -1.86380000      -3.97320000
