18
Properties=species:S:1:pos:R:3 gdb_44851=T pbc="F F F"
O        0.04160000       0.03320000       0.08180000
C        0.01070000       1.23270000       0.03690000
C       -1.24400000       2.13690000       0.04900000
C       -0.61170000       3.54150000       0.01660000
C        0.58600000       3.29790000      -0.93570000
C        1.20710000       2.20500000      -0.04190000
C        1.18030000       2.86250000       1.34500000
C        1.26610000       4.34110000       1.47510000
N       -0.05290000       3.70130000       1.39100000
H       -1.85800000       1.92890000      -0.83330000
H       -1.84710000       1.95930000       0.94240000
H       -1.28690000       4.35880000      -0.23870000
H        0.26810000       2.91400000      -1.90860000
H        1.22900000       4.16010000      -1.10950000
H        2.14390000       1.73980000      -0.34300000
H        1.37230000       2.23060000       2.20710000
H        1.48080000       4.74870000       2.45870000
H        1.63940000       4.94830000       0.65770000
