23
Properties=species:S:1:pos:R:3 gdb_39661=T pbc="F F F"
C       -0.02840000       1.50960000       0.22840000
C        1.51370000       1.50830000       0.05380000
C        1.52790000       0.02350000       0.52340000
C        0.00490000      -0.04180000       0.20500000
C        2.47400000      -0.96340000      -0.15410000
C        3.96100000      -0.65160000       0.19120000
C        4.30480000      -1.67780000       1.24390000
C        3.37830000      -2.62960000       1.33670000
C        2.24450000      -2.41510000       0.36320000
H       -0.32440000       1.89330000       1.20910000
H       -0.62520000       2.01610000      -0.53390000
H        1.79950000       1.59140000      -1.00060000
H        2.09340000       2.23630000       0.62680000
H        1.68120000      -0.01980000       1.60930000
H       -0.64530000      -0.57740000       0.90120000
H       -0.17100000      -0.43310000      -0.80320000
H        2.30630000      -0.90570000      -1.23550000
H        4.61600000      -0.75980000      -0.68460000
H        4.09260000       0.37980000       0.54100000
H        5.22170000      -1.63700000       1.82220000
H        3.42300000      -3.48490000       2.00250000
H        1.25660000      -2.53390000       0.82520000
H        2.28790000      -3.15160000      -0.45130000
