16
Properties=species:S:1:pos:R:3 gdb_71515=T pbc="F F F"
O       -0.03680000       1.41100000       0.05950000
C        0.04240000       0.03500000       0.03020000
C        0.66290000      -0.96650000       1.01570000
N        0.02270000      -1.87960000      -0.03280000
C       -1.18270000      -0.90350000      -0.03580000
C       -1.78140000      -0.94280000      -1.42940000
C       -0.46620000      -0.91220000      -2.22260000
O       -0.29230000      -0.86700000      -3.41040000
C        0.56100000      -0.91380000      -1.11560000
H        0.85300000       1.78180000       0.04900000
H        1.75150000      -1.05480000       1.06040000
H        0.21110000      -1.05960000       2.00770000
H       -1.83450000      -0.99540000       0.83330000
H       -2.34540000      -1.85840000      -1.63130000
H       -2.41290000      -0.08150000      -1.66430000
H        1.61710000      -1.00450000      -1.36470000
