19
Properties=species:S:1:pos:R:3 gdb_93970=T pbc="F F F"
C        0.15940000       1.56210000      -0.09660000
C        0.00460000       0.05030000       0.08110000
O        0.53860000      -0.62250000      -1.05550000
C        1.43550000      -1.65460000      -0.65240000
C        1.55750000      -1.50400000       0.84150000
C        2.44430000      -2.35170000       1.63180000
O        3.14110000      -3.22060000       1.14920000
C        0.73610000      -0.53090000       1.27120000
C        0.47900000      -0.03870000       2.65720000
H        1.21720000       1.83990000      -0.12580000
H       -0.30310000       1.86540000      -1.03930000
H       -0.33080000       2.10740000       0.71600000
H       -1.07360000      -0.17990000       0.17270000
H        1.04060000      -2.64350000      -0.92920000
H        2.39710000      -1.53490000      -1.16830000
H        2.45340000      -2.16000000       2.72600000
H        1.02210000      -0.60600000       3.41460000
H        0.76270000       1.01600000       2.75340000
H       -0.59170000      -0.09530000       2.88970000
