18
Properties=species:S:1:pos:R:3 gdb_15395=T pbc="F F F"
O       -0.00060000       1.40200000       0.01140000
C       -0.00530000      -0.00320000       0.21000000
C       -1.34110000      -0.53910000      -0.29430000
C       -1.44510000      -2.04090000      -0.15710000
C       -1.86980000      -2.67290000       1.13870000
C       -2.80000000      -2.73620000      -0.06530000
C       -4.02280000      -1.98850000      -0.07910000
C       -5.05560000      -1.37120000      -0.10060000
H        0.83390000       1.74980000       0.33870000
H        0.82130000      -0.48620000      -0.33770000
H        0.11830000      -0.25950000       1.27450000
H       -2.15110000      -0.05270000       0.25840000
H       -1.46090000      -0.24550000      -1.34400000
H       -0.70830000      -2.59860000      -0.73070000
H       -1.40250000      -3.59750000       1.45860000
H       -2.16880000      -2.01260000       1.94550000
H       -2.86050000      -3.70070000      -0.56130000
H       -5.96570000      -0.82510000      -0.11750000
