18
Properties=species:S:1:pos:R:3 gdb_119757=T pbc="F F F"
C       -0.03470000       1.58190000      -0.09740000
C        0.06880000       0.06670000       0.03340000
N        0.64450000      -0.52060000      -1.16720000
C        0.76530000      -1.85600000      -1.33610000
C        0.30350000      -2.88720000      -0.59400000
C        0.67830000      -4.14020000      -1.24250000
O        0.47690000      -5.28080000      -0.93220000
O        1.38930000      -3.82950000      -2.40440000
C        1.48450000      -2.42540000      -2.53820000
H        0.95360000       2.03570000      -0.23320000
H       -0.66190000       1.86110000      -0.94940000
H       -0.47400000       2.01080000       0.80650000
H        0.66730000      -0.20120000       0.91690000
H       -0.92700000      -0.36800000       0.18220000
H        1.21940000       0.07990000      -1.73700000
H       -0.24920000      -2.86190000       0.33090000
H        1.01650000      -2.10650000      -3.47900000
H        2.54100000      -2.12460000      -2.56340000
