14
Properties=species:S:1:pos:R:3 gdb_25856=T pbc="F F F"
C       -0.01000000       1.50030000       0.06340000
C       -0.02070000      -0.01840000       0.04990000
O       -0.04440000      -0.68700000       1.05890000
C       -0.00020000      -0.65280000      -1.27820000
C        0.02460000      -0.15790000      -2.52280000
O        0.03420000      -1.18220000      -3.42400000
C        0.01420000      -2.36260000      -2.68490000
N        0.01460000      -3.53660000      -3.11750000
O       -0.00700000      -2.03370000      -1.36610000
H        0.88800000       1.88840000      -0.42900000
H       -0.88030000       1.90160000      -0.46660000
H       -0.02950000       1.83880000       1.09940000
H        0.03770000       0.84540000      -2.91210000
H        0.03230000      -3.55470000      -4.13320000
