21
Properties=species:S:1:pos:R:3 gdb_63226=T pbc="F F F"
C       -0.00960000       1.58160000      -0.01000000
C        0.02080000       0.04260000       0.00090000
C       -1.42900000      -0.48670000       0.01060000
C        0.77160000      -0.53480000      -1.18510000
C        1.60670000      -1.51480000      -0.85270000
C        1.60890000      -1.77850000       0.63290000
C        0.82070000      -0.57120000       1.21950000
C        1.80220000       0.41390000       1.81790000
O        1.67490000       0.94690000       2.89070000
H        0.99140000       2.01250000      -0.10640000
H       -0.60650000       1.94210000      -0.85450000
H       -0.45780000       1.97400000       0.90840000
H       -1.95480000      -0.19140000      -0.90410000
H       -1.45120000      -1.57900000       0.07160000
H       -1.98600000      -0.08260000       0.86310000
H        0.57480000      -0.19180000      -2.19600000
H        2.20430000      -2.09450000      -1.54760000
H        1.12230000      -2.73190000       0.87470000
H        2.62370000      -1.84750000       1.04720000
H        0.13650000      -0.85830000       2.02130000
H        2.69870000       0.61350000       1.18420000
