21
Properties=species:S:1:pos:R:3 gdb_84428=T pbc="F F F"
C       -0.04110000       1.56220000      -0.02080000
C       -0.03590000       0.05410000       0.07340000
C        1.22760000      -0.74950000      -0.21420000
C        0.63540000      -0.76840000       1.17370000
C        1.41090000      -0.17030000       2.32410000
C       -0.29520000      -1.96190000       1.47940000
O       -0.80290000      -1.96460000       2.81300000
C       -1.39560000      -1.83220000       0.45020000
C       -1.27600000      -0.70930000      -0.26310000
H        0.91430000       1.98860000       0.29790000
H       -0.21550000       1.88910000      -1.05280000
H       -0.82800000       2.00190000       0.60250000
H        1.13900000      -1.62620000      -0.84870000
H        2.15570000      -0.19660000      -0.33560000
H        1.96020000       0.72280000       2.01240000
H        0.75210000       0.10190000       3.15300000
H        2.14140000      -0.88790000       2.71460000
H        0.24820000      -2.91090000       1.39440000
H       -1.45900000      -1.26030000       2.86410000
H       -2.17680000      -2.57660000       0.34980000
H       -1.95640000      -0.38450000      -1.04430000
