23
Properties=species:S:1:pos:R:3 gdb_112622=T pbc="F F F"
C       -0.56140000       1.12890000      -0.00660000
C       -0.05140000      -0.30830000       0.13350000
C        0.99120000      -0.47030000       1.23930000
C        0.45730000      -0.41060000       2.70600000
C        0.73080000      -1.93350000       2.86090000
O        1.46980000      -2.35220000       4.00180000
C       -0.52030000      -2.80520000       2.88980000
O       -0.19180000      -4.17670000       2.81530000
C        1.48430000      -1.92670000       1.50080000
H        0.25780000       1.81510000      -0.24910000
H       -1.31080000       1.21050000      -0.79990000
H       -1.02200000       1.48140000       0.92270000
H       -0.89810000      -0.98220000       0.31930000
H        0.39000000      -0.63540000      -0.81710000
H        1.80830000       0.23410000       1.05250000
H        1.08290000       0.18370000       3.37780000
H       -0.58240000      -0.09310000       2.84030000
H        2.36450000      -2.00600000       3.93170000
H       -1.08420000      -2.56970000       3.80800000
H       -1.16410000      -2.57970000       2.03460000
H        0.50300000      -4.30620000       3.47260000
H        1.17590000      -2.69540000       0.78720000
H        2.57020000      -1.99530000       1.62610000
