19
Properties=species:S:1:pos:R:3 gdb_65893=T pbc="F F F"
C       -0.06970000       1.55230000      -0.00450000
C       -0.02420000       0.01730000      -0.00280000
C        1.13840000      -0.55360000      -0.89780000
C        2.01400000      -0.71750000       0.37140000
C        0.74150000      -0.56350000       1.24380000
C       -1.33400000      -0.55300000      -0.24920000
C       -2.41260000      -1.06240000      -0.45240000
C       -3.71070000      -1.63040000      -0.69760000
O       -3.95130000      -2.81680000      -0.72130000
H        0.92710000       1.96400000       0.18240000
H       -0.42040000       1.93020000      -0.96950000
H       -0.74390000       1.92250000       0.77360000
H        0.86720000      -1.51140000      -1.34540000
H        1.49620000       0.11620000      -1.68340000
H        2.56310000      -1.65550000       0.46870000
H        2.71910000       0.10640000       0.50580000
H        0.79330000       0.09840000       2.11160000
H        0.32940000      -1.52490000       1.55560000
H       -4.50880000      -0.87920000      -0.87080000
