21
Properties=species:S:1:pos:R:3 gdb_23011=T pbc="F F F"
C       -0.02600000       1.55310000       0.09350000
C       -0.02000000       0.01810000      -0.03360000
C        0.77380000      -0.45290000      -1.23030000
N        2.04880000      -0.57730000      -1.24820000
O        2.62750000      -0.25560000      -0.00890000
C        0.02130000      -0.78660000      -2.47380000
C        0.67910000      -1.34620000      -3.68610000
N       -0.22850000      -2.18190000      -2.91200000
C        0.37170000      -3.27560000      -2.15670000
H        0.99230000       1.92880000       0.21730000
H       -0.45980000       2.02580000      -0.79370000
H       -0.61630000       1.86270000       0.96100000
H        0.41430000      -0.41660000       0.87090000
H       -1.04650000      -0.35130000      -0.12310000
H        3.56430000      -0.39490000      -0.18250000
H       -0.86000000      -0.16100000      -2.60800000
H        0.33000000      -1.05000000      -4.67230000
H        1.74610000      -1.54050000      -3.60890000
H        1.37080000      -3.05380000      -1.75670000
H       -0.28680000      -3.54390000      -1.32390000
H        0.44850000      -4.14310000      -2.81970000
