21
Properties=species:S:1:pos:R:3 gdb_48840=T pbc="F F F"
O       -0.12670000       0.04340000       0.26080000
C        0.00840000       1.19470000      -0.07600000
C        1.27250000       1.96530000       0.00210000
C        1.09670000       3.46320000       0.21100000
C        1.47800000       2.97150000      -1.14630000
C        2.88270000       3.19620000      -1.71020000
C        3.90270000       2.13030000      -1.27890000
C        3.81870000       1.85170000       0.22470000
C        2.46430000       1.22710000       0.58820000
H       -0.85130000       1.77470000      -0.49110000
H        0.09050000       3.83900000       0.36950000
H        1.85630000       3.95710000       0.80820000
H        0.68040000       2.98770000      -1.88390000
H        2.82570000       3.22830000      -2.80270000
H        3.24100000       4.18450000      -1.39550000
H        3.71260000       1.19620000      -1.82390000
H        4.90990000       2.45750000      -1.55810000
H        4.61880000       1.17160000       0.53490000
H        3.97840000       2.78530000       0.78130000
H        2.35190000       1.15240000       1.67600000
H        2.42840000       0.19830000       0.21240000
