21
Properties=species:S:1:pos:R:3 gdb_71123=T pbc="F F F"
C       -0.14250000       1.49660000       0.03280000
C        0.04470000      -0.00920000      -0.01440000
C        0.62450000      -0.55610000      -1.34500000
C        0.08060000      -1.97390000      -1.35860000
C        0.12980000      -2.67410000      -0.00510000
C        1.00740000      -2.09160000       1.09210000
C        0.87640000      -0.54490000       1.16530000
C       -1.10710000      -1.92670000      -0.43190000
O       -1.25980000      -0.62470000       0.07580000
H        0.82030000       2.00820000      -0.06220000
H       -0.79380000       1.82510000      -0.78200000
H       -0.59940000       1.79850000       0.98010000
H        0.24070000       0.00900000      -2.20160000
H        1.71770000      -0.49450000      -1.35880000
H        0.08410000      -2.55110000      -2.27540000
H        0.06640000      -3.75810000      -0.03290000
H        0.73440000      -2.53700000       2.05460000
H        2.04890000      -2.38070000       0.90910000
H        1.86320000      -0.06930000       1.16940000
H        0.37090000      -0.24570000       2.08850000
H       -2.05520000      -2.41890000      -0.61130000
