11
Properties=species:S:1:pos:R:3 gdb_858=T pbc="F F F"
N       -0.02110000       1.30820000       0.16010000
C       -0.05320000      -0.05610000       0.03990000
N       -1.10440000      -0.81690000      -0.07160000
C       -0.57240000      -2.09660000      -0.07480000
O       -1.37190000      -3.17440000      -0.17650000
C        0.77450000      -2.05660000       0.02760000
O        1.11870000      -0.70180000       0.10430000
H        0.83470000       1.74120000      -0.15370000
H       -0.85680000       1.76090000      -0.17750000
H       -2.27540000      -2.83980000      -0.22350000
H        1.57600000      -2.76860000       0.05860000
