20
Properties=species:S:1:pos:R:3 gdb_98982=T pbc="F F F"
C       -0.16710000       1.43220000       0.29870000
C        0.04100000      -0.04040000      -0.04440000
C        0.78940000      -0.23120000      -1.36420000
O        1.16970000       0.68050000      -2.05180000
N        0.98170000      -1.58490000      -1.68140000
C        1.62180000      -2.13210000      -2.80430000
O        2.11390000      -1.47450000      -3.68400000
C        1.62560000      -3.66130000      -2.78780000
C        2.32210000      -4.25430000      -4.00960000
H        0.79100000       1.95010000       0.38360000
H       -0.74060000       1.93560000      -0.48300000
H       -0.70390000       1.53270000       1.24590000
H        0.60380000      -0.55130000       0.74880000
H       -0.92130000      -0.56580000      -0.11390000
H        0.61210000      -2.24940000      -1.01780000
H        2.11040000      -3.99540000      -1.86040000
H        0.58540000      -4.00860000      -2.72330000
H        1.82930000      -3.93460000      -4.93070000
H        3.36100000      -3.92100000      -4.06410000
H        2.30730000      -5.34670000      -3.96630000
