19
Properties=species:S:1:pos:R:3 gdb_85770=T pbc="F F F"
C       -0.72970000       1.25880000       0.15090000
C        0.00730000      -0.05800000      -0.05650000
C        1.04350000      -0.14230000      -1.22160000
N        2.07540000      -0.41780000      -0.20920000
C        3.41810000      -0.66270000      -0.42140000
C        4.25040000      -0.92370000       0.81730000
O        3.86700000      -0.66190000      -1.54870000
C        1.18200000      -0.32640000       0.88310000
N        1.25170000      -0.40130000       2.14010000
H       -0.03620000       2.10590000       0.13540000
H       -1.47810000       1.41610000      -0.63210000
H       -1.23780000       1.25870000       1.11900000
H       -0.69470000      -0.89660000      -0.06310000
H        0.91090000      -0.95850000      -1.93510000
H        1.21610000       0.79230000      -1.76170000
H        4.24440000      -0.05120000       1.47920000
H        3.85690000      -1.77610000       1.38050000
H        5.27390000      -1.13340000       0.50720000
H        2.19500000      -0.57890000       2.48120000
