19
Properties=species:S:1:pos:R:3 gdb_109230=T pbc="F F F"
C        0.00190000       1.56250000       0.08080000
C        0.06300000       0.06150000      -0.06800000
C        0.75950000      -0.64130000      -1.17470000
C        1.81970000       0.10210000      -1.99070000
N        2.84960000       0.48810000      -1.01230000
C        2.49280000       0.03050000       0.12300000
C        3.32080000       0.24140000       1.35430000
O        4.44910000       1.03600000       1.10310000
N        1.29980000      -0.74210000       0.21240000
H        0.89580000       2.06350000      -0.29610000
H       -0.86200000       1.94580000      -0.47260000
H       -0.12910000       1.84170000       1.13140000
H       -0.81010000      -0.44790000       0.33440000
H        0.32740000      -1.54980000      -1.58250000
H        2.25900000      -0.54810000      -2.75540000
H        1.44190000       0.99280000      -2.50690000
H        2.68630000       0.70120000       2.12930000
H        3.60620000      -0.74860000       1.74520000
H        4.44400000       1.20320000       0.14900000
