18
Properties=species:S:1:pos:R:3 gdb_31517=T pbc="F F F"
C       -0.28900000       1.50840000      -0.15860000
C        0.13190000       0.03970000       0.02730000
C        0.90180000      -0.51020000      -1.12170000
C        2.17250000      -0.96620000      -1.27590000
C        2.30920000      -1.33060000      -2.65970000
O        3.42230000      -1.77170000      -3.33610000
C        1.10650000      -1.07960000      -3.24710000
N        0.61510000      -1.30400000      -4.53030000
O        0.23990000      -0.57930000      -2.32730000
H        0.58720000       2.15470000      -0.26740000
H       -0.90480000       1.62260000      -1.05510000
H       -0.87000000       1.85790000       0.70050000
H        0.75390000      -0.06200000       0.92260000
H       -0.76530000      -0.57040000       0.19970000
H        2.93060000      -1.02180000      -0.50950000
H        3.78180000      -2.53690000      -2.87560000
H        1.35890000      -1.65950000      -5.11950000
H        0.22760000      -0.46630000      -4.95360000
