17
Properties=species:S:1:pos:R:3 gdb_32017=T pbc="F F F"
C       -0.07390000       1.52890000       0.12410000
C        0.02720000       0.01400000      -0.04280000
C        0.74150000      -0.42360000      -1.29660000
N        1.22150000       0.44420000      -2.14540000
C        1.84510000      -0.11230000      -3.23850000
N        2.01240000      -1.36430000      -3.52580000
C        1.50540000      -2.30140000      -2.62950000
N        1.56150000      -3.56970000      -2.72180000
N        0.86130000      -1.75250000      -1.49960000
H        0.91720000       1.98600000       0.15820000
H       -0.61290000       1.97970000      -0.71170000
H       -0.60200000       1.76700000       1.05130000
H        0.54810000      -0.43500000       0.81370000
H       -0.97240000      -0.44130000      -0.05020000
H        2.24510000       0.61310000      -3.94570000
H        2.05100000      -3.81310000      -3.58120000
H        0.48770000      -2.42110000      -0.83930000
