10
Properties=species:S:1:pos:R:3 gdb_23856=T pbc="F F F"
F        0.04710000       0.09710000       0.18550000
C        0.02380000       1.41150000       0.04790000
N       -1.12610000       1.95670000      -0.02970000
O       -1.17280000       3.33270000      -0.17430000
N       -0.03530000       4.11000000      -0.23520000
C        1.10710000       3.53220000      -0.15440000
C        1.31000000       2.09720000      -0.00080000
N        2.47550000       1.57690000       0.07440000
H        1.97320000       4.18510000      -0.20710000
H        2.40730000       0.56200000       0.17930000
