17
Properties=species:S:1:pos:R:3 gdb_70036=T pbc="F F F"
O       -0.06500000       1.42650000       0.04770000
C       -0.00050000       0.04720000       0.02140000
C       -0.28780000      -0.77400000      -1.19710000
C       -1.17690000      -0.93700000       0.01370000
C       -0.46880000      -1.79590000       1.06990000
O        0.11350000      -3.01710000       0.63360000
C        1.49670000      -2.89450000       0.90090000
O        1.85400000      -1.53590000       0.71640000
C        0.70840000      -0.79010000       1.09960000
H        0.63580000       1.77360000      -0.51550000
H       -0.74670000      -0.20800000      -2.00120000
H        0.37140000      -1.57690000      -1.50870000
H       -2.23970000      -0.73690000      -0.01870000
H       -1.02470000      -1.92760000       2.00280000
H        1.71970000      -3.21120000       1.93530000
H        2.05380000      -3.51130000       0.18970000
H        0.86340000      -0.24390000       2.03530000
