19
Properties=species:S:1:pos:R:3 gdb_38798=T pbc="F F F"
C       -0.03130000       1.57090000       0.08100000
C        1.50650000       1.44050000      -0.02210000
C        2.03760000       1.28050000       1.42200000
N        1.85980000      -0.11090000       1.86020000
C        2.84110000      -0.92670000       1.05780000
C        1.76910000      -1.14810000       0.01890000
C        0.70660000      -0.79120000       1.09230000
C       -0.00670000       0.04600000       0.00710000
N        1.31360000       0.09170000      -0.74380000
H       -0.43720000       2.06910000       0.96430000
H       -0.48780000       1.98150000      -0.82240000
H        2.05650000       2.17310000      -0.61630000
H        3.09960000       1.52810000       1.51060000
H        1.49780000       1.96430000       2.08850000
H        3.75900000      -0.40190000       0.77350000
H        3.10340000      -1.84780000       1.59040000
H        1.75180000      -2.02310000      -0.63510000
H        0.15620000      -1.48770000       1.72830000
H       -0.83350000      -0.49760000      -0.46410000
