20
Properties=species:S:1:pos:R:3 gdb_59754=T pbc="F F F"
C        0.95790000      -0.53210000      -1.02410000
N        0.06670000       0.04820000      -0.02560000
C        0.10040000       1.50820000      -0.10720000
C       -1.28050000      -0.48430000      -0.12480000
C       -1.37730000      -2.02110000      -0.11010000
O       -2.70800000      -2.30890000       0.30860000
C       -3.03330000      -1.39580000       1.33620000
C       -2.19830000      -0.14280000       1.06970000
O       -2.25850000       0.88040000       1.69830000
H        1.96030000      -0.11490000      -0.89050000
H        1.03200000      -1.61570000      -0.90090000
H        0.64040000      -0.32190000      -2.06380000
H       -0.22540000       1.88080000      -1.09770000
H       -0.54370000       1.94040000       0.65670000
H        1.12630000       1.84990000       0.05960000
H       -1.81520000      -0.12320000      -1.03170000
H       -1.23700000      -2.48850000      -1.08550000
H       -0.63780000      -2.43090000       0.59670000
H       -4.10630000      -1.18440000       1.31960000
H       -2.77370000      -1.78170000       2.33650000
