16
Properties=species:S:1:pos:R:3 gdb_52059=T pbc="F F F"
O       -0.17450000       0.05090000       0.23170000
C        0.02050000       1.17540000      -0.14210000
C        1.40740000       1.78010000      -0.27440000
O        1.27230000       3.02120000      -0.95000000
C        2.46380000       3.71910000      -1.12660000
C        3.36710000       3.33540000      -2.28740000
C        2.53120000       4.58510000      -2.35700000
C        3.07750000       4.19150000       0.09860000
N        3.55690000       4.54460000       1.09020000
H       -0.80180000       1.87250000      -0.41380000
H        1.82920000       1.91750000       0.73320000
H        2.06200000       1.08590000      -0.81960000
H        4.43850000       3.42680000      -2.15530000
H        3.03970000       2.47860000      -2.86500000
H        1.64060000       4.56540000      -2.97380000
H        3.01960000       5.54790000      -2.27150000
