14
Properties=species:S:1:pos:R:3 gdb_28544=T pbc="F F F"
O        0.06220000       1.32450000       0.00280000
C        0.06620000      -0.02890000      -0.03620000
C       -0.03750000      -0.68070000      -1.26100000
C       -0.02950000      -2.07350000      -1.25930000
C        0.07930000      -2.76450000      -0.06110000
O        0.08960000      -4.12740000      -0.02790000
C        0.17720000      -1.99700000       1.10430000
O        0.28410000      -2.67260000       2.27940000
N        0.17180000      -0.67450000       1.12640000
H        0.14240000       1.57040000       0.93320000
H       -0.12080000      -0.10970000      -2.17600000
H       -0.10740000      -2.63500000      -2.18360000
H        0.17350000      -4.39690000       0.89460000
H        0.34230000      -2.01100000       2.98040000
