16
Properties=species:S:1:pos:R:3 gdb_41689=T pbc="F F F"
C       -0.00630000       1.44490000      -0.08280000
O        1.04330000       1.93520000       0.76290000
C        2.09440000       0.97910000       0.81740000
C        1.37540000      -0.33200000       0.65760000
O        2.05920000      -1.54170000       0.43470000
C        1.18520000      -2.49740000       0.86770000
N        0.08950000      -2.13510000       1.40300000
C        0.08540000      -0.68630000       1.37090000
C        0.05080000      -0.07040000      -0.01550000
H       -0.93790000       1.88310000       0.28910000
H        0.14070000       1.77110000      -1.12390000
H        2.82860000       1.11710000       0.00720000
H        2.60450000       1.10270000       1.77760000
H        1.52050000      -3.51610000       0.72000000
H       -0.33660000      -0.17100000       2.22740000
H       -0.30420000      -0.66480000      -0.84980000
