15
Properties=species:S:1:pos:R:3 gdb_128756=T pbc="F F F"
C       -0.00480000       1.37130000      -0.07790000
O        0.01460000      -0.00980000       0.28360000
C       -1.13090000      -0.67210000       0.11970000
N       -1.17230000      -1.92310000       0.33010000
C       -2.40900000      -2.54670000       0.24610000
N       -3.53510000      -1.96610000       0.62050000
O       -4.53170000      -2.91640000       0.41230000
C       -3.97100000      -4.03640000      -0.07030000
C       -2.63160000      -3.88640000      -0.19530000
H        0.95380000       1.78210000       0.23900000
H       -0.11160000       1.49280000      -1.16150000
H       -0.81470000       1.90340000       0.43300000
H       -1.99180000      -0.06950000      -0.19410000
H       -4.65030000      -4.85120000      -0.26910000
H       -1.89870000      -4.59150000      -0.54740000
