20
Properties=species:S:1:pos:R:3 gdb_107581=T pbc="F F F"
C       -0.46680000       1.50540000      -0.24570000
C        0.03170000       0.08430000       0.05300000
C        0.87770000      -0.49100000      -1.05420000
N        0.26040000      -0.92560000      -2.35160000
C        0.90220000      -1.92150000      -1.48470000
C        2.29040000      -2.30640000      -1.97990000
C        3.00020000      -0.95410000      -2.21400000
C        2.26770000       0.04170000      -1.30760000
O        2.73850000       1.03500000      -0.80970000
H        0.37930000       2.18210000      -0.38320000
H       -1.07460000       1.52980000      -1.15630000
H       -1.08060000       1.88120000       0.57820000
H        0.62460000       0.09400000       0.97500000
H       -0.81910000      -0.58550000       0.23460000
H       -0.74780000      -0.95640000      -2.20640000
H        0.28280000      -2.65570000      -0.97830000
H        2.80630000      -2.88290000      -1.20440000
H        2.24400000      -2.92470000      -2.88120000
H        4.06790000      -0.96090000      -1.98950000
H        2.87640000      -0.61750000      -3.24840000
