14
Properties=species:S:1:pos:R:3 gdb_133013=T pbc="F F F"
C        0.01110000       1.46200000      -0.03610000
N       -0.00170000       0.01050000       0.00570000
C        0.52790000      -0.65730000      -0.91810000
O        1.14940000       0.02130000      -2.02210000
C        1.70490000      -0.69430000      -2.99030000
F        2.21280000       0.10330000      -3.89440000
N        1.78580000      -1.95380000      -3.11540000
C        1.20080000      -2.67290000      -2.07600000
C        0.59660000      -2.09600000      -1.02000000
H        1.03330000       1.86180000      -0.05940000
H       -0.50690000       1.84980000      -0.92300000
H       -0.49100000       1.84720000       0.85350000
H        1.26570000      -3.75040000      -2.17570000
H        0.14640000      -2.66620000      -0.21970000
