15
Properties=species:S:1:pos:R:3 gdb_133834=T pbc="F F F"
O        1.44110000       0.34730000       1.05540000
C        2.51180000      -0.05750000       0.29680000
C        3.91390000       0.45500000       0.45370000
C        3.03930000       0.63610000      -0.91760000
C        4.82440000      -0.32750000      -1.25780000
C        3.41480000      -0.69290000      -1.58320000
C        2.84980000      -1.45800000      -0.30210000
O        3.99840000      -1.90520000       0.38890000
C        4.82390000      -0.74490000       0.19420000
H        1.60160000       0.08690000       1.97000000
H        4.16540000       1.35570000       0.99260000
H        2.86790000       1.61310000      -1.34040000
H        3.10520000      -0.90640000      -2.59910000
H        2.08200000      -2.22260000      -0.38000000
H        5.75840000      -0.82690000       0.73730000
