23
Properties=species:S:1:pos:R:3 gdb_100040=T pbc="F F F"
C        0.17400000       1.55350000      -0.10350000
C        0.00330000       0.04160000       0.06880000
C       -1.45730000      -0.45160000       0.12060000
C       -2.23590000       0.22820000       1.25820000
O       -2.02770000      -0.08470000      -1.14070000
C       -1.43470000      -1.98870000       0.22330000
C       -1.99880000      -2.78400000       1.38760000
C       -2.67940000      -2.80700000       0.04410000
O       -3.87310000      -2.08960000      -0.15280000
H        1.22630000       1.80100000      -0.27530000
H       -0.40510000       1.90660000      -0.96030000
H       -0.15110000       2.10970000       0.78090000
H        0.48260000      -0.46740000      -0.77580000
H        0.51590000      -0.30050000       0.97630000
H       -2.28880000       1.30270000       1.07030000
H       -3.25780000      -0.15380000       1.31110000
H       -1.75390000       0.07020000       2.22860000
H       -2.92180000      -0.44740000      -1.15290000
H       -0.55810000      -2.42190000      -0.25020000
H       -1.47080000      -3.67120000       1.72100000
H       -2.49650000      -2.23280000       2.17710000
H       -2.60820000      -3.71340000      -0.55530000
H       -4.59520000      -2.56440000       0.27090000
