17
Properties=species:S:1:pos:R:3 gdb_55482=T pbc="F F F"
C       -0.18080000       1.33360000       0.53490000
C       -0.34590000      -0.17420000       0.53370000
O        0.00150000      -0.87200000       1.45070000
C       -0.99750000      -0.75210000      -0.74040000
C       -1.15430000      -2.19370000      -0.73940000
C       -1.28730000      -3.39220000      -0.74450000
C       -1.44030000      -4.83630000      -0.73450000
C       -0.93850000      -5.52890000       0.51540000
O       -1.93650000      -5.43020000      -1.66820000
H        0.28490000       1.65110000       1.46790000
H        0.43690000       1.65210000      -0.31250000
H       -1.15350000       1.82560000       0.42210000
H       -1.97170000      -0.26200000      -0.87830000
H       -0.39830000      -0.43370000      -1.60520000
H       -1.46230000      -5.14020000       1.39520000
H       -1.09690000      -6.60460000       0.42690000
H        0.12550000      -5.31380000       0.66140000
