14
Properties=species:S:1:pos:R:3 gdb_131080=T pbc="F F F"
O        0.26330000       0.12740000      -0.36360000
C        0.31470000       1.31880000      -0.35200000
O        0.83160000       2.01260000       0.68500000
C        0.92400000       3.43520000       0.54680000
C        2.30700000       3.83680000       0.14300000
C        3.48470000       3.13300000       0.23040000
N        4.40410000       3.99450000      -0.26360000
N        3.84660000       5.15930000      -0.63650000
N        2.57190000       5.06350000      -0.39070000
H       -0.05690000       1.97460000      -1.16310000
H        0.19680000       3.80900000      -0.18410000
H        0.65420000       3.85000000       1.52250000
H        3.72440000       2.14390000       0.58000000
H        5.39550000       3.86100000      -0.38670000
