18
Properties=species:S:1:pos:R:3 gdb_31993=T pbc="F F F"
O        0.57400000      -0.69200000       0.50540000
C       -0.21100000       0.10880000      -0.37890000
C       -1.64800000      -0.21360000      -0.15360000
C       -2.78210000       0.56930000      -0.18750000
C       -3.90080000      -0.29230000      -0.01410000
C       -3.41610000      -1.57370000       0.13870000
C       -4.09540000      -2.86220000       0.45100000
O       -3.43500000      -3.90510000      -0.26720000
N       -2.05000000      -1.50820000       0.04820000
H        1.49420000      -0.61370000       0.23580000
H       -0.05480000       1.18410000      -0.20740000
H        0.07770000      -0.09780000      -1.42360000
H       -2.80380000       1.63860000      -0.33610000
H       -4.94160000      -0.00620000       0.01220000
H       -4.05640000      -3.07330000       1.53340000
H       -5.15740000      -2.78230000       0.17570000
H       -3.75700000      -4.74600000       0.07150000
H       -1.43110000      -2.29780000       0.11890000
