19
Properties=species:S:1:pos:R:3 gdb_85380=T pbc="F F F"
C        0.00450000       1.55610000       0.01030000
C        0.00180000       0.02480000       0.00220000
C        0.66410000      -0.53060000      -1.27640000
C        0.68110000      -2.05120000      -1.28930000
O        0.26770000      -2.70950000      -2.21180000
C        1.25010000      -2.69800000      -0.02600000
C        0.70860000      -2.06480000       1.25620000
O        0.31560000      -2.73300000       2.18050000
C        0.69170000      -0.54420000       1.26000000
H        1.02930000       1.94540000       0.00130000
H       -0.51360000       1.95550000      -0.86710000
H       -0.49430000       1.94600000       0.90310000
H       -1.04320000      -0.31550000       0.01170000
H        0.15190000      -0.18450000      -2.17720000
H        1.70370000      -0.17230000      -1.32100000
H        1.07130000      -3.77330000      -0.02980000
H        2.33590000      -2.51910000      -0.03680000
H        1.73210000      -0.18640000       1.28570000
H        0.19930000      -0.20780000       2.17530000
