16
Properties=species:S:1:pos:R:3 gdb_26877=T pbc="F F F"
C       -0.00410000       1.51850000       0.08510000
C        0.00630000       0.02800000      -0.03270000
C       -0.01720000      -0.66620000      -1.20670000
O       -0.05340000      -0.01790000      -2.40670000
N       -0.00590000      -2.02690000      -1.24650000
C        0.02860000      -2.70040000      -0.13870000
C        0.05740000      -2.10120000       1.19330000
N        0.09230000      -2.67440000       2.34530000
N        0.04280000      -0.71200000       1.12520000
H        0.89500000       1.88120000       0.59820000
H       -0.04240000       1.97070000      -0.90550000
H       -0.87260000       1.86380000       0.65910000
H       -0.06550000      -0.71160000      -3.07760000
H        0.03670000      -3.78680000      -0.20040000
H        0.09870000      -3.68620000       2.23250000
H        0.06100000      -0.23840000       2.01780000
