23
Properties=species:S:1:pos:R:3 gdb_100194=T pbc="F F F"
C        0.21110000       1.54300000       0.25530000
C       -0.04050000       0.03810000       0.10930000
C       -1.52000000      -0.40130000       0.03600000
C       -2.34860000       0.13670000       1.21590000
C       -2.17580000       0.07910000      -1.25780000
O       -1.59920000       0.54140000      -2.20910000
C       -1.55930000      -1.93650000      -0.07530000
C       -1.61410000      -2.86390000       1.11400000
C       -2.78440000      -2.78700000       0.16690000
H        1.28650000       1.74580000       0.24280000
H       -0.24030000       2.10100000      -0.56890000
H       -0.18160000       1.93900000       1.19710000
H        0.45580000      -0.31330000      -0.80150000
H        0.42390000      -0.49690000       0.94650000
H       -2.38330000       1.22920000       1.20130000
H       -3.38240000      -0.22010000       1.18520000
H       -1.91200000      -0.16540000       2.17220000
H       -3.28120000      -0.06800000      -1.27990000
H       -0.92770000      -2.28720000      -0.88810000
H       -0.98410000      -3.74620000       1.09460000
H       -1.74210000      -2.43640000       2.10180000
H       -3.68920000      -2.31480000       0.53210000
H       -2.96550000      -3.61620000      -0.50790000
