20
Properties=species:S:1:pos:R:3 gdb_92993=T pbc="F F F"
C       -0.07750000       1.42540000       0.33110000
C        0.12070000      -0.07680000       0.14890000
C        0.71040000      -0.50420000      -1.22110000
C        1.52470000      -1.72870000      -0.88300000
C        1.67940000      -1.88790000       0.43080000
C        1.03510000      -0.76810000       1.21580000
N        2.06770000       0.08580000       1.80520000
C        1.94420000       0.66990000       3.02580000
O        0.97050000       0.58810000       3.74600000
H        0.86730000       1.96770000       0.22110000
H       -0.77530000       1.81650000      -0.41650000
H       -0.47750000       1.65250000       1.32370000
H       -0.85440000      -0.56870000       0.24420000
H       -0.07320000      -0.70820000      -1.95950000
H        1.34470000       0.27920000      -1.66200000
H        1.93700000      -2.38620000      -1.64120000
H        2.24280000      -2.67810000       0.91440000
H        0.43810000      -1.11220000       2.06400000
H        2.92430000       0.22380000       1.29190000
H        2.85320000       1.24130000       3.30270000
