18
Properties=species:S:1:pos:R:3 gdb_18128=T pbc="F F F"
C       -0.05240000       1.37300000       0.18410000
C        1.37610000       1.91880000       0.12620000
C        2.20490000       0.69080000       0.51670000
O        2.31400000       0.54070000       1.93410000
C        1.52520000      -0.56220000       2.38110000
C        1.39270000      -1.49030000       1.17160000
C        1.35600000      -0.49590000       0.00660000
O        0.04030000       0.01010000      -0.23090000
H       -0.45710000       1.44030000       1.20510000
H       -0.74730000       1.88370000      -0.48930000
H        1.62950000       2.22560000      -0.89430000
H        1.55490000       2.75820000       0.80080000
H        3.21680000       0.71670000       0.09970000
H        2.03700000      -1.01880000       3.23350000
H        0.53700000      -0.21860000       2.72210000
H        2.27560000      -2.13230000       1.08100000
H        0.50090000      -2.11940000       1.19430000
H        1.72620000      -0.92950000      -0.92800000
