17
Properties=species:S:1:pos:R:3 gdb_54202=T pbc="F F F"
N        0.14670000       0.98310000       0.86150000
C        0.13110000       0.01650000      -0.10320000
O        1.08970000      -0.27130000      -0.78930000
C       -1.19890000      -0.73650000      -0.19610000
O       -2.24250000       0.18580000       0.08480000
C       -1.43640000      -1.60410000      -1.47860000
C       -1.64510000      -2.82630000      -0.56880000
N       -0.36600000      -3.01400000       0.14900000
C       -1.34140000      -2.02450000       0.65180000
H        0.95350000       1.58570000       0.89130000
H       -0.73280000       1.33390000       1.20330000
H       -3.06000000      -0.31420000       0.19060000
H       -2.33670000      -1.27170000      -2.00030000
H       -0.59080000      -1.67190000      -2.16270000
H       -2.33290000      -3.65150000      -0.70440000
H       -0.46100000      -3.84190000       0.73760000
H       -1.72820000      -2.06970000       1.66400000
