17
Properties=species:S:1:pos:R:3 gdb_125300=T pbc="F F F"
C       -0.02050000       1.51750000       0.06000000
C       -0.00760000       0.02220000       0.01400000
C       -0.02710000      -0.78260000      -1.07260000
C       -0.00370000      -2.25920000      -0.70310000
C        0.03330000      -2.19650000       0.79750000
C        0.02990000      -0.86600000       1.17260000
N        0.06300000      -0.83320000       2.52270000
N        0.08830000      -2.08240000       3.05770000
C        0.07020000      -2.91050000       2.00640000
H        0.87190000       1.90910000       0.56380000
H       -0.05360000       1.94300000      -0.94590000
H       -0.88950000       1.89230000       0.61480000
H       -0.05620000      -0.43590000      -2.09870000
H       -0.88650000      -2.78100000      -1.09580000
H        0.86830000      -2.76410000      -1.13970000
H        0.07120000      -0.04450000       3.14580000
H        0.08480000      -3.97610000       2.18370000
