13
Properties=species:S:1:pos:R:3 gdb_48450=T pbc="F F F"
N        0.07310000       1.20320000      -0.65540000
C        0.05980000       0.06480000      -0.14760000
O        0.97320000      -0.65970000       0.56700000
C        0.07610000      -1.81130000       0.67380000
C       -1.02980000      -1.02720000      -0.07080000
C       -2.19970000      -0.55260000       0.81580000
O       -2.25200000      -0.77450000       1.99130000
C       -1.50900000      -1.54800000      -1.33670000
N       -1.91990000      -1.97580000      -2.32840000
H        0.96040000       1.68730000      -0.51300000
H        0.47770000      -2.67460000       0.14360000
H       -0.16240000      -2.03380000       1.71340000
H       -2.96440000       0.03460000       0.27400000
