15
Properties=species:S:1:pos:R:3 gdb_27431=T pbc="F F F"
N        0.07040000       1.31860000      -0.33620000
C       -0.04350000      -0.01720000      -0.02850000
C       -1.26770000      -0.63210000       0.03990000
C       -1.51920000      -2.04970000       0.16580000
N       -2.64780000      -2.49810000       0.59440000
C       -0.48650000      -2.94300000      -0.42830000
N        0.78910000      -2.86780000      -0.35840000
C        1.46910000      -1.82170000       0.22270000
N        1.18540000      -0.56970000       0.28410000
H        0.90900000       1.76300000       0.00340000
H       -0.76400000       1.88190000      -0.31340000
H       -2.15920000      -0.01240000      -0.00250000
H       -2.68610000      -3.51660000       0.50240000
H       -0.89190000      -3.79200000      -0.98890000
H        2.45270000      -2.10970000       0.59300000
