14
Properties=species:S:1:pos:R:3 gdb_12308=T pbc="F F F"
O       -0.00810000       0.02090000       0.40860000
C       -0.04520000       1.19370000       0.14290000
C       -1.32570000       1.99660000      -0.00060000
C       -1.16260000       3.15680000      -0.99010000
O       -0.06430000       3.96900000      -0.61510000
C        1.17480000       3.32120000      -0.80910000
C        1.28760000       1.97540000      -0.09240000
O        2.34390000       1.50280000       0.23450000
H       -2.14690000       1.32400000      -0.26560000
H       -1.54850000       2.42150000       0.98790000
H       -1.02990000       2.77880000      -2.01730000
H       -2.04580000       3.79990000      -0.98160000
H        1.36030000       3.13180000      -1.88280000
H        1.96270000       3.98630000      -0.44780000
