20
Properties=species:S:1:pos:R:3 gdb_68116=T pbc="F F F"
O       -0.02550000       1.34120000       0.08620000
C        0.03350000      -0.03570000       0.00150000
C        0.50100000      -1.05700000       1.08570000
C        0.00350000      -1.89200000      -0.12640000
C       -1.22520000      -0.90300000      -0.21480000
C        0.77060000      -0.91360000      -1.05820000
N        0.07040000      -3.31160000      -0.21300000
C       -1.04080000      -4.07540000       0.34960000
C       -0.85730000      -3.97710000      -1.12460000
H        0.86780000       1.67550000       0.22030000
H        1.57350000      -1.10650000       1.29420000
H       -0.09770000      -1.10990000       1.99900000
H       -1.94290000      -0.92430000       0.60940000
H       -1.71710000      -0.80430000      -1.18600000
H        0.41650000      -0.83640000      -2.08970000
H        1.86210000      -0.95290000      -1.00060000
H       -0.76230000      -4.98000000       0.88210000
H       -1.87260000      -3.52440000       0.78300000
H       -1.56700000      -3.36070000      -1.67190000
H       -0.44270000      -4.80870000      -1.68660000
