19
Properties=species:S:1:pos:R:3 gdb_98075=T pbc="F F F"
C       -0.12940000       1.16060000      -0.60960000
N       -0.35920000      -0.23420000      -0.26030000
C        0.80700000      -1.09660000      -0.38860000
C       -1.30430000      -0.49370000       0.70400000
N       -1.97240000       0.43970000       1.27270000
C       -1.64670000      -1.95170000       0.95730000
O       -1.61920000      -2.43940000       2.06750000
C       -2.19740000      -2.76750000      -0.20720000
O       -2.50950000      -4.06760000       0.19120000
H        0.39260000       1.20040000      -1.56990000
H       -1.08630000       1.67630000      -0.68390000
H        0.47700000       1.68050000       0.14540000
H        1.64360000      -0.74360000       0.23240000
H        0.57600000      -2.11790000      -0.08030000
H        1.14130000      -1.12040000      -1.43090000
H       -2.66810000       0.04660000       1.90470000
H       -3.08360000      -2.22360000      -0.58110000
H       -1.47530000      -2.77010000      -1.03560000
H       -2.38360000      -4.07670000       1.15370000
