21
Properties=species:S:1:pos:R:3 gdb_119018=T pbc="F F F"
C        1.62750000       1.77420000       1.02270000
C        0.88250000       0.46940000       0.72670000
C        1.45290000      -0.71400000       1.52570000
C        0.71820000      -2.03930000       1.37290000
C        0.88140000      -2.79290000       0.04980000
C        0.25580000      -2.15160000      -1.10820000
N       -0.23330000      -1.66270000      -2.03400000
C        0.52800000      -2.87650000       2.58920000
N       -0.61830000      -2.19510000       1.96320000
H        2.68880000       1.69260000       0.76220000
H        1.20840000       2.60610000       0.44940000
H        1.56830000       2.03710000       2.08520000
H       -0.18170000       0.58980000       0.96550000
H        0.92620000       0.25920000      -0.34570000
H        2.50850000      -0.85910000       1.25690000
H        1.44970000      -0.45060000       2.59180000
H        1.94650000      -2.93770000      -0.16710000
H        0.43480000      -3.78650000       0.15290000
H        0.51030000      -3.96100000       2.51620000
H        0.91800000      -2.49610000       3.52940000
H       -0.86860000      -1.36380000       2.49290000
