17
Properties=species:S:1:pos:R:3 gdb_68128=T pbc="F F F"
C        0.08190000       1.52900000       0.11480000
C        0.01270000       0.03580000      -0.02540000
C        0.59370000      -0.77460000      -1.22720000
C        0.61000000      -1.83070000      -0.07130000
O        0.93870000      -0.72050000       0.83850000
C       -0.90980000      -1.99640000       0.19570000
C       -1.31010000      -0.72760000       0.22710000
C        1.48050000      -2.97530000      -0.03590000
C        2.19500000      -3.94140000      -0.02920000
H        1.09510000       1.89040000      -0.07890000
H       -0.60110000       2.01050000      -0.59250000
H       -0.20440000       1.83140000       1.12700000
H       -0.03920000      -0.96840000      -2.09500000
H        1.60000000      -0.45310000      -1.50520000
H       -1.43950000      -2.92970000       0.31100000
H       -2.28940000      -0.29660000       0.37770000
H        2.83100000      -4.79190000      -0.01560000
