22
Properties=species:S:1:pos:R:3 gdb_56264=T pbc="F F F"
N       -0.07570000       1.28780000       0.35980000
C        0.06470000      -0.01060000      -0.04620000
O        1.15050000      -0.49400000      -0.30090000
C       -1.24430000      -0.79120000      -0.16020000
C       -1.04350000      -2.29960000      -0.00160000
C       -2.31690000      -3.10620000      -0.28220000
C       -2.11610000      -4.59900000      -0.12600000
C       -2.24950000      -5.24980000       1.22860000
C       -3.28390000      -5.50740000       0.15910000
H        0.73960000       1.87870000       0.34390000
H       -0.97700000       1.71550000       0.47860000
H       -1.97380000      -0.41310000       0.56700000
H       -1.66340000      -0.57400000      -1.15330000
H       -0.23880000      -2.61110000      -0.67490000
H       -0.68750000      -2.51610000       1.01270000
H       -3.12030000      -2.78090000       0.39380000
H       -2.67020000      -2.88690000      -1.30000000
H       -1.34360000      -5.01210000      -0.77060000
H       -1.56810000      -6.05110000       1.49220000
H       -2.53520000      -4.62000000       2.06540000
H       -4.26130000      -5.05120000       0.28090000
H       -3.30810000      -6.48460000      -0.31050000
