17
Properties=species:S:1:pos:R:3 gdb_48446=T pbc="F F F"
O        0.01420000      -0.21000000       0.01330000
C       -0.01480000       0.99250000       0.02540000
C        1.20270000       1.89580000       0.00720000
C        1.43950000       2.59180000       1.37980000
O        2.59980000       1.78440000       1.62730000
C        2.53850000       1.18620000       0.31510000
C        1.15440000       2.78410000      -1.21690000
C        0.44970000       4.07370000      -1.23860000
O        1.87580000       4.01200000      -1.16550000
H       -0.98200000       1.54500000       0.06000000
H        1.68550000       3.65600000       1.29210000
H        0.66050000       2.44800000       2.13900000
H        2.48200000       0.09470000       0.35490000
H        3.37570000       1.50240000      -0.31830000
H        1.26180000       2.24920000      -2.16240000
H        0.04430000       4.45270000      -2.17450000
H       -0.04520000       4.43370000      -0.33740000
