15
Properties=species:S:1:pos:R:3 gdb_124971=T pbc="F F F"
C       -0.06820000       1.44280000      -0.28740000
C       -0.10350000      -0.02760000      -0.06090000
C       -1.10290000      -0.96010000      -0.01820000
C       -2.59070000      -0.78900000      -0.17950000
C       -2.96840000       0.03400000      -1.33180000
N       -3.25880000       0.69940000      -2.23060000
C       -0.40980000      -2.17010000       0.25850000
N        0.88090000      -1.99330000       0.37340000
O        1.07590000      -0.63070000       0.16830000
H        0.84200000       1.71770000      -0.82600000
H       -0.93350000       1.76570000      -0.86950000
H       -0.07010000       1.98690000       0.66410000
H       -3.06140000      -1.77120000      -0.29560000
H       -3.04230000      -0.34090000       0.71500000
H       -0.81840000      -3.16520000       0.37310000
