16
Properties=species:S:1:pos:R:3 gdb_29122=T pbc="F F F"
C       -0.02060000       1.52370000      -0.01740000
C       -0.04940000       0.02480000       0.01010000
C       -1.17460000      -0.71980000      -0.11440000
C       -1.14340000      -2.15540000      -0.07370000
N       -2.33540000      -2.87520000      -0.28360000
C        0.06650000      -2.73580000       0.09170000
O        1.21450000      -2.02360000       0.18950000
C        1.24430000      -0.63830000       0.17110000
O        2.31130000      -0.08670000       0.28330000
H        0.62160000       1.88190000      -0.82870000
H       -1.02330000       1.93780000      -0.14780000
H        0.41100000       1.91840000       0.90840000
H       -2.13560000      -0.23080000      -0.25670000
H       -3.11380000      -2.50700000       0.24970000
H       -2.24010000      -3.86440000      -0.09110000
H        0.24460000      -3.80300000       0.14290000
