20
Properties=species:S:1:pos:R:3 gdb_99653=T pbc="F F F"
C        0.35580000       1.55940000       0.00500000
O       -0.12830000       0.26460000      -0.28720000
C        0.66670000      -0.44530000      -1.21190000
C        1.99870000      -0.76320000      -0.66670000
C        3.08610000      -1.02880000      -0.22820000
C       -0.02840000      -1.73150000      -1.65450000
N       -0.79500000      -2.49910000      -0.67610000
C       -1.48960000      -1.94870000      -1.85440000
C       -2.58740000      -0.93800000      -1.62280000
H        1.35150000       1.52570000       0.46630000
H        0.40960000       2.18460000      -0.90020000
H       -0.35010000       2.00900000       0.70650000
H        0.81490000       0.17150000      -2.11790000
H        4.04500000      -1.26370000       0.16350000
H        0.62150000      -2.28540000      -2.33180000
H       -0.61630000      -3.49400000      -0.77520000
H       -1.71290000      -2.65840000      -2.65290000
H       -2.34360000      -0.28870000      -0.78420000
H       -2.73770000      -0.32110000      -2.51620000
H       -3.53110000      -1.45360000      -1.41290000
