19
Properties=species:S:1:pos:R:3 gdb_64580=T pbc="F F F"
C       -0.11460000       1.57710000      -0.02560000
C        0.00230000       0.07190000      -0.06640000
C       -1.17970000      -0.65880000       0.46100000
O       -2.16770000      -0.13790000       0.91820000
C        0.71650000      -0.68730000      -1.18540000
C        1.67440000       0.08630000      -2.09470000
C        2.78360000       0.52020000      -1.15920000
C        2.58900000       0.07180000       0.08420000
C        1.32310000      -0.70390000       0.19240000
H        0.83470000       2.06660000      -0.24620000
H       -0.86030000       1.92110000      -0.74960000
H       -0.45380000       1.89870000       0.96270000
H       -1.09060000      -1.77060000       0.41040000
H        0.21560000      -1.56070000      -1.58800000
H        2.05230000      -0.55880000      -2.89830000
H        1.19470000       0.94120000      -2.58880000
H        3.60730000       1.14660000      -1.48160000
H        3.23890000       0.25410000       0.93160000
H        1.26880000      -1.56770000       0.84660000
