17
Properties=species:S:1:pos:R:3 gdb_54946=T pbc="F F F"
C       -0.05540000       1.43390000      -0.02400000
C        0.04310000      -0.07410000       0.01660000
O        0.05520000      -0.68490000       1.07790000
C        0.09000000      -0.78200000      -1.28020000
C        0.85090000      -2.10040000      -1.37500000
C       -0.64000000      -2.17780000      -1.33000000
O       -1.28850000      -2.64040000      -0.20130000
C       -1.35800000      -2.45690000      -2.54520000
C       -1.93930000      -2.68390000      -3.57200000
H        0.80770000       1.85690000      -0.55020000
H       -0.94810000       1.73560000      -0.58370000
H       -0.10300000       1.83210000       0.98990000
H        0.02840000      -0.17580000      -2.17560000
H        1.36080000      -2.30450000      -2.30870000
H        1.36720000      -2.40910000      -0.47170000
H       -0.85010000      -2.22380000       0.56440000
H       -2.46090000      -2.89330000      -4.47300000
