16
Properties=species:S:1:pos:R:3 gdb_30518=T pbc="F F F"
C        0.20830000       1.41730000      -0.30470000
N        0.05840000       0.00910000      -0.00350000
C        0.45650000      -0.54670000       1.06750000
N        0.23330000      -1.91340000       1.19820000
C        0.60880000      -2.65360000       2.30110000
C        1.22330000      -2.06450000       3.32430000
O        1.49980000      -0.71270000       3.31280000
C        1.15410000       0.08150000       2.24650000
N        1.42210000       1.31950000       2.26520000
H        1.25720000       1.73300000      -0.31810000
H       -0.22720000       1.59910000      -1.29180000
H       -0.29620000       2.05760000       0.42700000
H       -0.23280000      -2.34010000       0.41340000
H        0.38390000      -3.71000000       2.29160000
H        1.55680000      -2.54790000       4.22790000
H        1.89240000       1.55980000       3.13990000
