19
Properties=species:S:1:pos:R:3 gdb_106124=T pbc="F F F"
O        0.17960000       1.42860000       0.27810000
C        0.06170000       0.07920000      -0.15570000
C       -1.34190000      -0.42130000      -0.14600000
C       -2.26520000      -0.78370000       1.00120000
C       -3.38200000       0.11480000       0.46570000
C       -2.68060000      -0.01670000      -0.90990000
C       -2.85520000      -1.51950000      -1.27510000
O       -2.31840000      -1.89980000      -2.52200000
C       -1.94440000      -1.81680000      -0.08400000
H       -0.21270000       1.47940000       1.15610000
H        0.47750000       0.07010000      -1.17040000
H        0.68640000      -0.59720000       0.45200000
H       -1.99210000      -0.97460000       2.03280000
H       -4.41920000      -0.23390000       0.53390000
H       -3.30910000       1.12760000       0.87110000
H       -2.78180000       0.74170000      -1.68350000
H       -3.87720000      -1.91290000      -1.26340000
H       -1.38580000      -1.65390000      -2.52770000
H       -1.44560000      -2.74910000       0.15340000
