18
Properties=species:S:1:pos:R:3 gdb_85150=T pbc="F F F"
C       -0.44250000       1.37560000       0.28850000
C        0.06820000      -0.01080000      -0.06070000
C        1.03200000      -0.16020000      -1.28040000
C        2.04260000      -0.75340000      -0.30780000
N        3.16870000      -1.29890000      -0.47510000
N        1.18200000      -0.50080000       0.78010000
C        1.14410000      -0.82900000       2.12750000
N        2.36870000      -1.19900000       2.65290000
O        0.10910000      -0.80940000       2.76200000
H        0.37540000       2.10360000       0.29460000
H       -1.18580000       1.69820000      -0.44760000
H       -0.91220000       1.36830000       1.27510000
H       -0.75450000      -0.73230000      -0.07740000
H        0.71160000      -0.84070000      -2.07030000
H        1.34600000       0.78830000      -1.72170000
H        3.55440000      -1.67620000       0.39040000
H        3.19200000      -0.75390000       2.27530000
H        2.35590000      -1.27890000       3.65920000
