18
Properties=species:S:1:pos:R:3 gdb_64114=T pbc="F F F"
C        0.10860000       1.46440000      -0.06980000
C       -0.09730000      -0.05370000       0.03880000
C       -1.59030000      -0.41350000       0.01670000
O        0.54920000      -0.69020000      -1.08380000
C        1.56250000      -1.58800000      -0.66550000
C        1.54760000      -1.50480000       0.84710000
C        0.61010000      -0.63870000       1.23500000
C        2.42140000      -2.25740000       1.67280000
N        3.14980000      -2.88680000       2.31720000
H        1.17370000       1.70960000      -0.06510000
H       -0.32690000       1.82790000      -1.00490000
H       -0.37440000       1.98670000       0.76220000
H       -2.03840000      -0.06350000      -0.91760000
H       -1.72620000      -1.49600000       0.08200000
H       -2.11990000       0.05670000       0.85120000
H        1.34790000      -2.60670000      -1.02000000
H        2.53720000      -1.29260000      -1.08050000
H        0.36900000      -0.37350000       2.25610000
