18
Properties=species:S:1:pos:R:3 gdb_119812=T pbc="F F F"
C        0.10000000       1.51770000       0.07510000
C       -0.10170000       0.01440000      -0.07680000
N        0.66250000      -0.49290000      -1.21460000
C        0.77130000      -1.84350000      -1.39250000
N        0.40940000      -2.74670000      -0.55400000
C        0.80070000      -4.02460000      -1.14270000
C        1.46170000      -3.70950000      -2.49210000
O        1.96140000      -4.43800000      -3.31220000
N        1.36360000      -2.32310000      -2.56830000
H        1.15590000       1.75950000       0.22700000
H       -0.24990000       2.06000000      -0.81150000
H       -0.46730000       1.89030000       0.93220000
H        0.24940000      -0.52090000       0.80840000
H       -1.16980000      -0.22460000      -0.18070000
H        0.58390000       0.05130000      -2.06160000
H        1.50450000      -4.57390000      -0.50530000
H       -0.06480000      -4.68090000      -1.29460000
H        1.81600000      -1.77590000      -3.28270000
