22
Properties=species:S:1:pos:R:3 gdb_117492=T pbc="F F F"
C       -0.17490000       1.34650000      -0.49560000
C       -0.05890000      -0.11760000      -0.11240000
O       -1.33160000      -0.72700000      -0.35460000
C       -1.44850000      -2.05150000      -0.07890000
N       -0.45240000      -2.69020000       0.37630000
C       -0.50020000      -4.09900000       0.69050000
C       -2.82390000      -2.52760000      -0.38610000
C       -4.01570000      -1.61200000      -0.16840000
C       -3.58920000      -1.94970000      -1.56330000
H        0.78000000       1.85300000      -0.32590000
H       -0.43900000       1.45530000      -1.55170000
H       -0.94140000       1.84840000       0.10230000
H        0.70700000      -0.63570000      -0.69940000
H        0.20820000      -0.24550000       0.94200000
H        0.33460000      -4.60620000       0.19230000
H       -0.35140000      -4.23920000       1.76860000
H       -1.42260000      -4.62580000       0.40970000
H       -2.99220000      -3.57590000      -0.18100000
H       -4.91930000      -2.06350000       0.22550000
H       -3.80420000      -0.61360000       0.19270000
H       -3.09190000      -1.17720000      -2.13610000
H       -4.19510000      -2.63650000      -2.14370000
