20
Properties=species:S:1:pos:R:3 gdb_9518=T pbc="F F F"
C        0.13810000       1.43010000       0.24620000
C       -0.07010000      -0.06820000      -0.00130000
C       -1.54560000      -0.50940000      -0.11170000
C       -2.29650000       0.19860000      -1.23910000
C       -1.70810000      -2.07040000      -0.04710000
C       -2.25550000      -1.98270000       1.40920000
C       -2.25450000      -0.45380000       1.26100000
O       -2.68320000       0.44680000       1.92600000
H        1.19790000       1.64640000       0.41270000
H       -0.18940000       2.03050000      -0.60750000
H       -0.42100000       1.76510000       1.12460000
H        0.44170000      -0.37280000      -0.92430000
H        0.40620000      -0.63600000       0.80880000
H       -1.78720000       0.04890000      -2.19810000
H       -3.31650000      -0.18670000      -1.33690000
H       -2.36770000       1.27340000      -1.05280000
H       -2.44250000      -2.45290000      -0.75920000
H       -0.78060000      -2.63410000      -0.16470000
H       -3.23530000      -2.42540000       1.60700000
H       -1.56340000      -2.33250000       2.18170000
