15
Properties=species:S:1:pos:R:3 gdb_93196=T pbc="F F F"
C       -0.25530000       1.43260000       0.05440000
C       -0.01250000      -0.05800000      -0.10470000
C        1.02770000      -0.39500000      -1.15150000
O        1.18800000      -1.81630000      -1.25850000
C        1.21770000      -2.53400000      -0.11390000
O        1.36420000      -3.71780000      -0.12730000
C        1.05610000      -1.75740000       1.22160000
O        1.45140000      -2.21360000       2.25100000
O        0.44740000      -0.55300000       1.17380000
H        0.67750000       1.95640000       0.28220000
H       -0.68010000       1.84830000      -0.86350000
H       -0.95650000       1.60960000       0.87280000
H       -0.94970000      -0.57340000      -0.35270000
H        0.71950000      -0.05510000      -2.14210000
H        1.98880000       0.07100000      -0.90050000
