21
Properties=species:S:1:pos:R:3 gdb_40095=T pbc="F F F"
C       -0.36960000       1.32110000       0.24370000
C        1.07950000       0.91800000      -0.00990000
C       -0.01170000      -0.10060000      -0.03440000
O       -0.10860000      -1.11050000       0.97140000
C       -0.42110000      -2.11820000      -0.02860000
C       -1.84330000      -2.65290000       0.10530000
C       -2.72600000      -1.51540000      -0.44530000
C       -1.90130000      -0.94250000      -1.61770000
C       -0.43890000      -1.04340000      -1.15590000
H       -0.64600000       1.56830000       1.26330000
H       -0.89240000       1.89010000      -0.51880000
H        1.54300000       1.20970000      -0.94730000
H        1.74770000       0.90300000       0.84450000
H        0.35290000      -2.89150000      -0.05820000
H       -1.94390000      -3.55250000      -0.51570000
H       -2.07650000      -2.93080000       1.13700000
H       -3.71960000      -1.85380000      -0.75060000
H       -2.86140000      -0.75030000       0.32580000
H       -2.03930000      -1.56150000      -2.51240000
H       -2.19110000       0.07880000      -1.88360000
H        0.27710000      -1.14580000      -1.97280000
