19
Properties=species:S:1:pos:R:3 gdb_38693=T pbc="F F F"
C       -0.02750000       1.57110000      -0.01480000
C        1.48710000       1.82390000      -0.00250000
C        2.12660000       1.34570000       1.32510000
C        1.79270000      -0.15390000       1.52460000
C        0.27640000      -0.39520000       1.50350000
C       -0.00600000       0.03030000       0.04830000
C        1.37270000      -0.30310000      -0.65950000
O        1.91340000       0.94310000      -1.05480000
O        2.19350000      -0.86900000       0.34450000
H       -0.56880000       2.02390000       0.82000000
H       -0.45010000       1.94220000      -0.95200000
H        1.78930000       2.83910000      -0.26680000
H        3.21200000       1.46880000       1.26720000
H        1.75960000       1.94090000       2.16930000
H        2.31860000      -0.58620000       2.37800000
H        0.07510000      -1.45620000       1.67210000
H       -0.28550000       0.19110000       2.23520000
H       -0.86330000      -0.45860000      -0.41340000
H        1.35790000      -0.97020000      -1.52050000
