20
Properties=species:S:1:pos:R:3 gdb_15012=T pbc="F F F"
O       -0.03380000       1.44210000      -0.02680000
C        0.03300000       0.02320000       0.00810000
C       -1.38970000      -0.52400000      -0.01360000
C       -2.14890000      -0.12380000      -1.28870000
C       -3.53720000      -0.76490000      -1.30740000
O       -3.47040000      -2.17700000      -1.18360000
C       -2.85070000      -2.57550000       0.02560000
C       -1.41530000      -2.05310000       0.13500000
H        0.86270000       1.78600000      -0.07320000
H        0.59110000      -0.37020000      -0.85810000
H        0.54940000      -0.32700000       0.91710000
H       -1.91560000      -0.08520000       0.84750000
H       -2.23040000       0.96490000      -1.35640000
H       -1.58860000      -0.46710000      -2.16880000
H       -4.15380000      -0.34570000      -0.49230000
H       -4.05370000      -0.56720000      -2.25140000
H       -3.44070000      -2.21780000       0.88840000
H       -2.87430000      -3.66940000       0.03560000
H       -0.81080000      -2.51310000      -0.65780000
H       -0.98400000      -2.36210000       1.09520000
