24
Properties=species:S:1:pos:R:3 gdb_89052=T pbc="F F F"
C       -0.01180000       1.56590000      -0.14790000
C        0.02280000       0.06080000       0.01060000
C        1.32390000      -0.70310000      -0.05950000
C        0.56220000      -0.62710000       1.24570000
C        1.12240000       0.12420000       2.43570000
C        2.08060000      -0.73460000       3.26540000
N        2.63070000       0.02790000       4.38120000
C        1.86730000      -0.00260000       5.62420000
C        3.15250000      -0.74450000       5.50110000
H        0.88120000       2.04190000       0.26630000
H       -0.06590000       1.84130000      -1.20710000
H       -0.88350000       2.00290000       0.35270000
H       -0.82960000      -0.43940000      -0.44310000
H        1.35930000      -1.64310000      -0.59970000
H        2.23590000      -0.11700000      -0.13310000
H        0.03160000      -1.53620000       1.52270000
H        1.66060000       1.02170000       2.11510000
H        0.30330000       0.46890000       3.08140000
H        1.55990000      -1.64920000       3.60920000
H        2.91730000      -1.06350000       2.63740000
H        1.81630000       0.93150000       6.17640000
H        0.95410000      -0.59650000       5.64800000
H        3.09360000      -1.83070000       5.44480000
H        4.05990000      -0.36190000       5.96010000
