19
Properties=species:S:1:pos:R:3 gdb_109087=T pbc="F F F"
O        0.04160000       1.43510000       0.18740000
C        0.01000000       0.03270000      -0.00320000
C       -1.40320000      -0.45040000      -0.02480000
C       -2.50520000       0.29700000       0.07940000
C       -3.76490000      -0.51580000      -0.01270000
C       -4.38530000      -0.62960000      -1.42730000
O       -3.69520000      -1.87410000      -1.66760000
C       -3.24490000      -1.95110000      -0.29470000
C       -1.71610000      -1.92750000      -0.16460000
H        0.95980000       1.71850000       0.17060000
H        0.50150000      -0.25680000      -0.94950000
H        0.55900000      -0.49560000       0.79760000
H       -2.49850000       1.37380000       0.19300000
H       -4.47010000      -0.35330000       0.80620000
H       -5.47580000      -0.76250000      -1.43670000
H       -4.10740000       0.14450000      -2.15170000
H       -3.72100000      -2.78630000       0.23080000
H       -1.26030000      -2.38030000      -1.05430000
H       -1.36250000      -2.50170000       0.70330000
