21
Properties=species:S:1:pos:R:3 gdb_89147=T pbc="F F F"
C        0.28670000       1.60990000      -0.20010000
C        0.00070000       0.15510000       0.10300000
C       -1.41810000      -0.25410000       0.55700000
C       -0.80340000      -1.25510000       1.58190000
O       -0.97980000      -2.62000000       1.28930000
C        0.62490000      -0.64330000       1.30930000
C        1.49100000      -1.47010000       0.34400000
C        0.68570000      -0.88340000      -0.85370000
O       -0.25760000      -1.77930000      -1.43940000
H        1.35830000       1.79330000      -0.34160000
H       -0.22680000       1.92860000      -1.11600000
H       -0.05580000       2.25710000       0.61470000
H       -1.93040000       0.57920000       1.04840000
H       -2.08650000      -0.68500000      -0.19170000
H       -1.14160000      -1.11890000       2.61200000
H       -0.91180000      -2.70660000       0.32740000
H        1.10520000      -0.15710000       2.16020000
H        2.53770000      -1.15400000       0.33440000
H        1.44590000      -2.55640000       0.46130000
H        1.29390000      -0.41980000      -1.64040000
H        0.23210000      -2.41470000      -1.97230000
