19
Properties=species:S:1:pos:R:3 gdb_94636=T pbc="F F F"
C       -0.18780000       1.54960000      -0.06300000
C        0.08340000       0.05680000      -0.05870000
O        1.29750000      -0.29120000      -0.76950000
C        1.90400000      -0.86280000       0.40300000
C        0.62010000      -0.60550000       1.24110000
N        0.65240000       0.21650000       2.43020000
C        1.20750000      -0.46680000       3.59360000
C        1.19520000       0.40670000       4.77070000
N        1.20830000       1.10120000       5.69330000
H        0.66850000       2.11990000       0.31080000
H       -0.38240000       1.88200000      -1.08690000
H       -1.06170000       1.78550000       0.55140000
H       -0.77620000      -0.47520000      -0.48680000
H        2.19260000      -1.91000000       0.25040000
H        2.78740000      -0.29570000       0.73230000
H        0.08790000      -1.52850000       1.49030000
H        1.16190000       1.07790000       2.26420000
H        0.58990000      -1.34740000       3.81060000
H        2.24050000      -0.83510000       3.45980000
