12
Properties=species:S:1:pos:R:3 gdb_983=T pbc="F F F"
N        0.03340000       1.43830000      -0.14160000
C        0.03680000       0.03650000      -0.02190000
C       -1.04220000      -0.79050000       0.04260000
O       -2.36000000      -0.51440000       0.15190000
O       -0.65750000      -2.10190000       0.06360000
C        0.70300000      -2.10230000       0.01370000
C        1.18250000      -0.83340000      -0.03670000
H        0.70050000       1.87570000       0.48340000
H       -0.88640000       1.81480000       0.05680000
H       -2.82600000      -0.82120000      -0.63630000
H        1.17160000      -3.07190000       0.01850000
H        2.21870000      -0.53730000      -0.09250000
