21
Properties=species:S:1:pos:R:3 gdb_81020=T pbc="F F F"
C       -0.09050000       1.53460000      -0.07880000
C       -0.02840000       0.01460000      -0.02540000
C        1.19610000      -0.60460000      -0.75300000
O        1.96690000      -0.49060000       0.48360000
C        0.70270000      -0.59350000       1.21320000
C        0.73590000       0.12910000       2.53980000
C        0.36660000      -2.09680000       1.34970000
C        0.54100000      -2.79060000       0.01580000
C        0.94500000      -2.07010000      -1.02940000
H        0.88960000       1.97510000       0.12640000
H       -0.40890000       1.86830000      -1.07240000
H       -0.80540000       1.93500000       0.64800000
H       -0.99670000      -0.42920000      -0.27350000
H        1.65850000      -0.05430000      -1.57610000
H        0.98080000       1.18600000       2.41480000
H       -0.23240000       0.05090000       3.04610000
H        1.49390000      -0.32190000       3.18930000
H        1.02320000      -2.55120000       2.10470000
H       -0.66020000      -2.22140000       1.72130000
H        0.34520000      -3.85710000      -0.04820000
H        1.08910000      -2.48380000      -2.02160000
