19
Properties=species:S:1:pos:R:3 gdb_2299=T pbc="F F F"
O       -0.02090000       1.44020000      -0.06200000
C        0.03180000       0.02490000       0.04700000
C       -1.38190000      -0.51580000      -0.12810000
C       -1.46080000      -2.03190000      -0.02060000
C       -1.23680000      -2.71870000       1.36020000
C       -2.37260000      -3.71560000       1.00630000
C       -2.85670000      -2.71520000      -0.07760000
H        0.86740000       1.78460000       0.06740000
H        0.69250000      -0.40910000      -0.72210000
H        0.43030000      -0.28330000       1.02730000
H       -2.02750000      -0.05370000       0.62990000
H       -1.76100000      -0.18680000      -1.10410000
H       -0.80010000      -2.49180000      -0.76670000
H       -0.24670000      -3.12660000       1.57950000
H       -1.52720000      -2.05350000       2.18090000
H       -1.98020000      -4.63500000       0.56200000
H       -3.07520000      -3.98780000       1.79740000
H       -3.63560000      -2.04950000       0.30900000
H       -3.19030000      -3.11690000      -1.03780000
