19
Properties=species:S:1:pos:R:3 gdb_88312=T pbc="F F F"
C       -0.32730000       1.61610000       0.09650000
C        0.01930000       0.14650000       0.03610000
C        1.38230000      -0.31970000      -0.37620000
C        0.95310000      -0.51700000       1.05730000
C        1.59930000       0.27820000       2.13890000
N        2.38860000       1.24470000       1.90320000
N        1.20880000      -0.16290000       3.43100000
C        1.60490000       0.35320000       4.63840000
O        2.36680000       1.27980000       4.80120000
H        0.52250000       2.20500000       0.44790000
H       -0.60790000       1.97870000      -0.89840000
H       -1.17410000       1.79870000       0.76760000
H       -0.80550000      -0.49600000      -0.26350000
H        1.47680000      -1.20190000      -0.99940000
H        2.14310000       0.43910000      -0.52320000
H        0.67520000      -1.52650000       1.34930000
H        2.69950000       1.68250000       2.76980000
H        0.55390000      -0.92950000       3.47030000
H        1.13550000      -0.19010000       5.48160000
