14
Properties=species:S:1:pos:R:3 gdb_23923=T pbc="F F F"
F        0.23020000       0.14150000      -0.06080000
C       -0.03110000       1.44280000       0.08230000
F        1.14420000       2.08510000       0.18320000
F       -0.62800000       1.86810000      -1.04420000
C       -0.92720000       1.72350000       1.27930000
N       -0.29580000       1.28020000       2.50460000
C        0.56480000       2.25070000       3.17760000
C       -0.77110000       1.90690000       3.73510000
H       -1.16400000       2.80120000       1.26020000
H       -1.85830000       1.16880000       1.12650000
H        1.46980000       1.84390000       3.61730000
H        0.68050000       3.23080000       2.72010000
H       -1.55320000       2.66030000       3.65560000
H       -0.86250000       1.24460000       4.59050000
