20
Properties=species:S:1:pos:R:3 gdb_79858=T pbc="F F F"
C       -0.84810000       1.43450000      -0.18610000
N       -0.59650000       0.00510000      -0.08170000
C       -1.34870000      -0.85180000       0.89110000
C       -0.23550000      -1.92180000       0.65930000
O       -0.05200000      -2.74660000       1.77210000
C       -0.17440000      -1.81370000       2.85370000
C       -0.43050000      -0.48760000       2.13230000
C       -0.59950000       0.68590000       3.07720000
C        0.46660000      -0.53710000       0.82510000
H       -0.05110000       1.87930000      -0.79210000
H       -1.78780000       1.57800000      -0.73090000
H       -0.91420000       2.00470000       0.74860000
H       -2.43320000      -0.97520000       0.85520000
H       -0.17690000      -2.45760000      -0.28380000
H       -1.00470000      -2.10480000       3.51110000
H        0.74960000      -1.80070000       3.44730000
H        0.29820000       0.80110000       3.69670000
H       -0.78120000       1.63740000       2.58270000
H       -1.43920000       0.50130000       3.75830000
H        1.52410000      -0.28910000       0.71120000
