24
Properties=species:S:1:pos:R:3 gdb_59999=T pbc="F F F"
C       -0.10450000       1.51860000       0.08620000
C        0.05640000      -0.00190000       0.10050000
O       -1.19930000      -0.64630000       0.33130000
C        0.73940000      -0.51630000      -1.17350000
C        0.88690000      -2.04180000      -1.28120000
C        1.50050000      -2.42960000      -2.62920000
N        1.74980000      -2.54430000      -0.20650000
C        1.09220000      -2.94300000       1.03950000
C        1.61970000      -3.96630000       0.10000000
H        0.86650000       2.01870000       0.01060000
H       -0.71060000       1.83860000      -0.77120000
H       -0.60050000       1.85710000       0.99990000
H        0.66360000      -0.28230000       0.96680000
H       -1.78460000      -0.41690000      -0.39950000
H        0.16640000      -0.16390000      -2.04420000
H        1.73450000      -0.06080000      -1.24800000
H       -0.12080000      -2.48870000      -1.20880000
H        2.50490000      -2.00550000      -2.72760000
H        1.58300000      -3.51630000      -2.72470000
H        0.88620000      -2.06280000      -3.45750000
H        1.63520000      -2.70650000       1.95080000
H        0.01380000      -2.82050000       1.10180000
H        0.88820000      -4.54500000      -0.46270000
H        2.54520000      -4.49340000       0.31440000
