17
Properties=species:S:1:pos:R:3 gdb_63286=T pbc="F F F"
C        0.09210000       1.56980000      -0.09250000
C       -0.01040000       0.05680000       0.01340000
O       -1.35580000      -0.38570000      -0.00670000
C        0.90560000      -0.79980000      -0.93320000
C        1.34350000      -1.63350000       0.29270000
O        1.95130000      -2.65080000       0.44600000
C        0.67110000      -0.63490000       1.22020000
C        1.25770000      -0.03850000       2.43440000
O        0.10530000      -0.87290000       2.48360000
H        1.13120000       1.90740000      -0.03320000
H       -0.31560000       1.91760000      -1.04930000
H       -0.48000000       2.04530000       0.71000000
H       -1.75730000      -0.07840000      -0.82700000
H        0.37000000      -1.36440000      -1.69950000
H        1.73750000      -0.25640000      -1.39190000
H        2.16930000      -0.46900000       2.84550000
H        1.08540000       1.01620000       2.64250000
