20
Properties=species:S:1:pos:R:3 gdb_89089=T pbc="F F F"
C        0.25290000       1.46290000      -0.33540000
C        0.00990000       0.03080000       0.06630000
O        1.15440000      -0.81060000       0.25600000
C        0.31300000      -0.54930000       1.38630000
C        0.93450000       0.19210000       2.54590000
C        1.92320000      -0.69700000       3.31220000
C        2.57170000       0.05040000       4.49350000
C        3.50610000      -0.78460000       5.24510000
N        4.24010000      -1.45810000       5.83080000
H        1.05930000       1.92080000       0.24050000
H        0.52720000       1.51190000      -1.39420000
H       -0.65760000       2.05640000      -0.19870000
H       -0.79110000      -0.45610000      -0.49510000
H       -0.28480000      -1.41410000       1.68750000
H        1.45090000       1.08860000       2.18870000
H        0.13460000       0.52800000       3.22000000
H        1.41230000      -1.59000000       3.68940000
H        2.70260000      -1.04510000       2.62740000
H        3.11020000       0.93510000       4.13330000
H        1.80070000       0.41350000       5.18370000
