17
Properties=species:S:1:pos:R:3 gdb_68348=T pbc="F F F"
O        0.00580000       1.42570000       0.01180000
C       -0.01360000       0.04790000       0.01150000
C        0.34130000      -0.80690000       1.28030000
C       -0.37390000      -1.92520000       0.43540000
C       -1.34540000      -0.78290000      -0.04140000
C        0.56250000      -2.00490000      -0.76090000
C        0.80680000      -0.71180000      -1.04940000
C        1.62080000      -0.10870000      -2.07780000
O        1.74320000       1.10030000      -2.21260000
H        0.58090000       1.70860000      -0.71780000
H        1.39700000      -0.94900000       1.52290000
H       -0.23220000      -0.51300000       2.16330000
H       -0.73710000      -2.84680000       0.88230000
H       -2.06050000      -0.48700000       0.73060000
H       -1.83570000      -0.90310000      -1.01030000
H        0.93270000      -2.89710000      -1.24950000
H        2.14570000      -0.80880000      -2.76000000
