16
Properties=species:S:1:pos:R:3 gdb_14917=T pbc="F F F"
C        0.01840000      -1.19830000      -0.00420000
C       -0.00460000       0.00380000      -0.00890000
C       -0.01170000       1.45750000       0.01990000
C       -0.72230000       2.00480000       1.27950000
O       -0.62920000       3.41790000       1.31800000
C        0.70810000       3.84230000       1.29170000
O        1.37530000       3.45140000       0.12070000
C        1.42030000       2.04060000      -0.00030000
H        0.03010000      -2.26010000      -0.01400000
H       -0.54210000       1.84810000      -0.85720000
H       -1.78460000       1.75240000       1.27420000
H       -0.26270000       1.56090000       2.17760000
H        0.69910000       4.93340000       1.30700000
H        1.24340000       3.44690000       2.17680000
H        2.00410000       1.59870000       0.82360000
H        1.92510000       1.81430000      -0.94160000
