12
Properties=species:S:1:pos:R:3 gdb_129311=T pbc="F F F"
N        0.18340000       0.98790000      -0.97600000
C       -0.01110000       0.05170000      -0.14790000
O        1.00870000      -0.78300000       0.29170000
N        1.44100000      -0.48740000       1.71320000
N        0.65710000      -0.83060000       2.56510000
C       -0.60670000      -1.48600000       2.30640000
N       -0.96510000      -2.45120000       3.04490000
C       -1.55060000      -0.95420000       1.28810000
N       -1.31780000      -0.24780000       0.25770000
H        1.18460000       1.08070000      -1.15450000
H       -0.24920000      -2.66630000       3.74450000
H       -2.58380000      -1.22480000       1.50610000
