24
Properties=species:S:1:pos:R:3 gdb_117338=T pbc="F F F"
C       -0.06420000       1.30140000       0.37340000
C       -0.05470000       0.12170000      -0.60210000
N       -1.31450000      -0.60450000      -0.63400000
C       -1.49550000      -1.80290000      -0.00370000
O       -0.59170000      -2.38990000       0.56820000
C       -2.92340000      -2.34590000      -0.05030000
C       -2.97710000      -3.88150000      -0.08880000
C       -4.40610000      -4.38280000       0.14920000
C       -2.40650000      -4.42930000      -1.40350000
H        0.90020000       1.81920000       0.35710000
H       -0.83990000       2.03000000       0.11240000
H       -0.25110000       0.95480000       1.39380000
H        0.18130000       0.46860000      -1.61520000
H        0.70540000      -0.60650000      -0.31160000
H       -2.11540000      -0.15600000      -1.04810000
H       -3.42820000      -1.98590000       0.85640000
H       -3.47230000      -1.92090000      -0.90130000
H       -2.33700000      -4.23330000       0.72790000
H       -5.08520000      -4.03920000      -0.64100000
H       -4.44030000      -5.47710000       0.15850000
H       -4.80290000      -4.02720000       1.10620000
H       -2.99350000      -4.08240000      -2.26340000
H       -1.36930000      -4.11340000      -1.54580000
H       -2.42590000      -5.52390000      -1.41150000
