16
Properties=species:S:1:pos:R:3 gdb_98039=T pbc="F F F"
C       -0.07930000       1.45460000      -0.08120000
N       -0.01800000       0.01610000       0.08120000
C        0.74170000      -0.58160000       1.04620000
O        1.42850000       0.02480000       1.84890000
C        0.65510000      -2.03630000       1.02870000
C        0.61730000      -3.23970000       1.05550000
C        0.56890000      -4.70180000       1.08520000
C        1.39750000      -5.29740000       2.13400000
C        2.07310000      -5.79800000       2.99000000
H        0.56520000       1.89560000       0.67980000
H        0.27660000       1.75900000      -1.07180000
H       -1.10060000       1.82740000       0.05490000
H       -0.55010000      -0.57770000      -0.53330000
H       -0.47370000      -5.02480000       1.21330000
H        0.87950000      -5.09200000       0.10590000
H        2.67400000      -6.23180000       3.75070000
