16
Properties=species:S:1:pos:R:3 gdb_13051=T pbc="F F F"
O       -1.02740000       0.96340000       0.52580000
C       -0.09280000       1.01430000      -0.23250000
C        1.17440000       1.80670000       0.03660000
C        1.47830000       2.80430000      -1.08540000
C        2.80540000       3.63260000      -1.06270000
C        3.04480000       3.31090000      -2.56930000
C        1.94070000       2.25050000      -2.44780000
O        1.64150000       1.27780000      -3.07930000
H       -0.10010000       0.47570000      -1.20350000
H        1.06910000       2.31430000       1.00020000
H        2.00600000       1.09170000       0.11250000
H        0.62060000       3.47110000      -1.24250000
H        2.70600000       4.68580000      -0.79980000
H        3.55970000       3.17480000      -0.41840000
H        2.74810000       4.12540000      -3.23800000
H        4.02820000       2.94880000      -2.87730000
