14
Properties=species:S:1:pos:R:3 gdb_128252=T pbc="F F F"
C       -0.02750000       1.47720000       0.21200000
N       -0.03210000       0.03360000       0.11190000
C        0.66990000      -0.63620000      -0.83500000
N        0.47120000      -2.04320000      -0.67940000
C        1.11260000      -2.88150000      -1.30620000
N        1.77240000      -3.79210000      -1.76180000
N        1.51390000      -1.64060000      -4.53920000
N        1.73250000      -0.66140000      -4.98600000
O        1.35290000      -0.12740000      -1.69890000
H        0.39750000       1.81060000       1.16540000
H        0.58650000       1.86110000      -0.60320000
H       -1.04040000       1.88400000       0.11870000
H       -0.55690000      -0.52010000       0.76820000
H        1.58600000      -4.17510000      -2.67870000
