18
Properties=species:S:1:pos:R:3 gdb_86918=T pbc="F F F"
C       -1.06920000       1.08360000       0.18570000
C       -0.00700000       0.00630000       0.01710000
C        0.85350000      -0.06230000      -1.28870000
C        2.12890000      -0.31920000      -0.44810000
O        3.26650000       0.41160000      -0.84380000
C        4.34150000       0.34370000      -0.02060000
N        5.39130000       0.97200000      -0.32370000
C        1.32030000       0.18350000       0.77350000
O        1.63660000       0.69860000       1.80590000
H       -0.66160000       2.07350000      -0.04150000
H       -1.92010000       0.90390000      -0.47830000
H       -1.43680000       1.10180000       1.21570000
H       -0.42180000      -0.98280000       0.24950000
H        0.59100000      -0.82410000      -2.02230000
H        0.92000000       0.91300000      -1.77660000
H        2.35250000      -1.39180000      -0.35930000
H        4.17740000      -0.27820000       0.86690000
H        6.10240000       0.82180000       0.38890000
