15
Properties=species:S:1:pos:R:3 gdb_18635=T pbc="F F F"
O        0.09910000       1.30870000      -0.10830000
C       -0.02670000      -0.06980000      -0.04330000
C       -0.47400000      -0.68720000       1.23110000
N       -0.97730000       0.31910000       2.16850000
C       -2.28370000       0.80800000       1.68800000
C       -2.58220000       0.08620000       0.36220000
O       -3.61870000       0.17200000      -0.24640000
C       -1.40760000      -0.76430000       0.02660000
H        0.12940000       1.61030000       0.81390000
H        0.69410000      -0.60260000      -0.65730000
H        0.01760000      -1.55000000       1.66500000
H       -1.05360000      -0.07690000       3.09480000
H       -3.09240000       0.59570000       2.39500000
H       -2.27650000       1.88930000       1.50850000
H       -1.56500000      -1.64770000      -0.57840000
