17
Properties=species:S:1:pos:R:3 gdb_85579=T pbc="F F F"
C        0.53270000       1.33460000      -0.28450000
C       -0.08820000       0.00830000       0.15630000
O       -0.13570000      -0.93310000      -0.93620000
C        0.90750000      -1.76450000      -1.17850000
N        0.96160000      -2.52120000      -2.19000000
C        2.03770000      -1.76180000      -0.17230000
N        1.54960000      -1.47390000       1.16510000
C        0.59850000      -0.53470000       1.41060000
O        0.30130000      -0.13150000       2.51760000
H        1.58740000       1.21690000      -0.55270000
H       -0.00260000       1.72590000      -1.15300000
H        0.46350000       2.05620000       0.53360000
H       -1.13410000       0.16610000       0.42610000
H        0.14520000      -2.37480000      -2.78690000
H        2.50170000      -2.74760000      -0.19720000
H        2.79920000      -1.03460000      -0.49350000
H        2.07200000      -1.79840000       1.96580000
