11
Properties=species:S:1:pos:R:3 gdb_131247=T pbc="F F F"
O        0.08470000       1.29840000      -0.04200000
C        0.06610000      -0.03870000      -0.07800000
C       -0.00280000      -0.81220000      -1.21790000
N        0.00860000      -2.10220000      -0.68640000
N       -0.02560000      -3.39540000      -1.03410000
N        0.01980000      -4.09860000       0.01160000
O        0.09060000      -3.22480000       1.16550000
C        0.08040000      -1.99250000       0.66950000
N        0.11830000      -0.76620000       1.10530000
H        0.13620000       1.55530000       0.88770000
H       -0.05440000      -0.59150000      -2.26610000
