13
Properties=species:S:1:pos:R:3 gdb_35313=T pbc="F F F"
N        0.08060000      -1.19910000      -0.12880000
C        0.04130000      -0.04670000      -0.05690000
C       -0.01330000       1.40340000       0.03300000
C       -0.30570000       2.05480000       1.44160000
C        1.03870000       2.79070000       1.31840000
O        2.05710000       1.79190000       1.18130000
C        1.33930000       2.15420000       0.01510000
C        1.39190000       4.07530000       1.83510000
N        1.63200000       5.12230000       2.26230000
H       -0.69520000       1.79670000      -0.72490000
H       -1.17440000       2.71270000       1.41560000
H       -0.36690000       1.37140000       2.28830000
H        1.89750000       2.51200000      -0.84120000
