20
Properties=species:S:1:pos:R:3 gdb_111815=T pbc="F F F"
C        0.05490000       1.71610000      -0.03720000
C        0.19430000       0.20070000       0.15050000
C        0.70830000      -0.48880000      -1.11070000
C        0.79910000      -2.03570000      -1.23340000
C       -0.31160000      -2.95180000      -0.63960000
C       -0.96430000      -2.97800000      -2.05430000
N        0.04170000      -1.97420000      -2.53870000
C       -0.28410000      -0.61400000      -2.29290000
O       -1.14090000       0.07840000      -2.76610000
H        1.02430000       2.17640000      -0.25830000
H       -0.62090000       1.93840000      -0.86710000
H       -0.34070000       2.18760000       0.86730000
H        0.87990000      -0.01740000       0.97900000
H       -0.77800000      -0.21980000       0.43240000
H        1.65390000      -0.03050000      -1.42410000
H        1.80120000      -2.46740000      -1.27180000
H        0.03890000      -3.91470000      -0.26410000
H       -0.92760000      -2.48130000       0.13020000
H       -0.86410000      -3.92910000      -2.58210000
H       -1.99470000      -2.62500000      -2.14130000
