21
Properties=species:S:1:pos:R:3 gdb_60302=T pbc="F F F"
C        0.13320000       1.55870000       0.02380000
C        0.01650000       0.02770000       0.03520000
C        0.75030000      -0.55990000       1.24840000
C       -1.44460000      -0.45470000       0.01670000
C       -2.21670000      -0.07760000      -1.26530000
C       -3.56720000      -0.61680000      -1.30310000
C       -4.68760000      -1.06920000      -1.32740000
C       -6.01840000      -1.61560000      -1.32080000
O       -6.75770000      -1.64330000      -2.27870000
H        1.18280000       1.86800000       0.05580000
H       -0.30950000       2.00480000      -0.87200000
H       -0.36710000       1.99430000       0.89710000
H        0.50550000      -0.35700000      -0.87210000
H        0.30100000      -0.20910000       2.18520000
H        0.71030000      -1.65410000       1.24920000
H        1.80350000      -0.26140000       1.25470000
H       -1.46510000      -1.54540000       0.12150000
H       -1.97840000      -0.05080000       0.88630000
H       -2.27970000       1.01270000      -1.36960000
H       -1.66760000      -0.43150000      -2.14860000
H       -6.33350000      -2.02630000      -0.33940000
