19
Properties=species:S:1:pos:R:3 gdb_73828=T pbc="F F F"
C       -0.01040000       1.51320000       0.11210000
C       -0.05020000       0.03040000      -0.01470000
C       -0.06190000      -0.77350000      -1.07990000
C       -0.03950000      -0.48920000      -2.54100000
C        0.00530000      -2.20890000      -0.48290000
O       -0.76760000      -2.03090000       0.71290000
C        0.02390000      -0.93810000       1.20100000
C        1.43160000      -1.58720000       1.18660000
C        1.41980000      -2.38830000       0.12550000
H        0.91260000       1.84370000       0.60880000
H       -0.05770000       2.00820000      -0.86210000
H       -0.84310000       1.88850000       0.72080000
H       -0.07870000       0.58390000      -2.74940000
H        0.87310000      -0.88560000      -3.00780000
H       -0.88440000      -0.96310000      -3.05720000
H       -0.38540000      -3.02030000      -1.09690000
H       -0.34930000      -0.56600000       2.15510000
H        2.23420000      -1.36040000       1.87350000
H        2.21010000      -2.99510000      -0.29230000
