21
Properties=species:S:1:pos:R:3 gdb_41847=T pbc="F F F"
C       -0.01560000       1.35390000      -0.11680000
C        1.37200000       1.98820000       0.01860000
C        2.11150000       1.40990000       1.25200000
C        2.15160000      -0.12040000       1.09640000
C        0.70220000      -0.61570000       1.07190000
C        0.00430000      -0.30960000       2.41570000
C        0.44520000       0.98440000       3.05270000
C        1.39780000       1.76270000       2.53810000
O        0.01780000      -0.06740000      -0.05670000
H       -0.68380000       1.75410000       0.65950000
H       -0.45840000       1.59470000      -1.08810000
H        1.96410000       1.77680000      -0.88020000
H        1.26620000       3.07660000       0.09520000
H        3.12890000       1.81550000       1.27600000
H        2.65010000      -0.40320000       0.16320000
H        2.69510000      -0.58030000       1.92890000
H        0.66500000      -1.69510000       0.89600000
H       -1.08110000      -0.30730000       2.25100000
H        0.19290000      -1.13870000       3.11310000
H       -0.05020000       1.26610000       3.97940000
H        1.66550000       2.69620000       3.02700000
