13
Properties=species:S:1:pos:R:3 gdb_18822=T pbc="F F F"
O        0.02600000      -0.03450000      -0.01030000
C        0.00720000       1.17130000      -0.05520000
N       -1.10490000       1.99580000       0.01080000
C       -0.73190000       3.38080000       0.00800000
C        0.45380000       3.80730000       0.89220000
O        1.15860000       2.66010000       1.34120000
C        1.19180000       2.15390000      -0.04520000
C        0.65380000       3.49990000      -0.56870000
H       -1.94060000       1.65680000       0.46210000
H       -1.49230000       4.10620000      -0.25170000
H        0.50710000       4.71050000       1.48860000
H        2.16480000       1.75820000      -0.32380000
H        0.96230000       4.07540000      -1.43000000
