23
Properties=species:S:1:pos:R:3 gdb_107985=T pbc="F F F"
C        0.03180000       1.56400000      -0.01670000
C       -0.03690000       0.03220000      -0.03800000
C       -1.44780000      -0.50490000      -0.01360000
C       -2.58480000      -0.25680000      -1.04170000
C       -3.20450000      -1.18930000       0.02220000
C       -1.88010000      -2.01250000       0.05610000
C       -1.64770000      -2.53560000       1.47440000
C       -2.11770000      -1.29590000       2.29120000
C       -2.50390000      -0.36150000       1.14360000
H        1.06850000       1.91380000      -0.03480000
H       -0.48140000       1.99460000      -0.88290000
H       -0.44210000       1.96890000       0.88370000
H        0.47330000      -0.34680000      -0.93380000
H        0.51740000      -0.37200000       0.81990000
H       -2.98810000       0.75900000      -1.10070000
H       -2.44080000      -0.67710000      -2.04250000
H       -4.22000000      -1.58970000       0.05030000
H       -1.64220000      -2.66320000      -0.78920000
H       -2.24070000      -3.43100000       1.68720000
H       -0.59850000      -2.79000000       1.65710000
H       -2.96620000      -1.51880000       2.94620000
H       -1.32410000      -0.87740000       2.91910000
H       -2.89240000       0.63120000       1.38290000
