23
Properties=species:S:1:pos:R:3 gdb_120187=T pbc="F F F"
C       -0.05780000       1.60070000      -0.33390000
C        0.06030000       0.09300000      -0.15510000
C        1.23680000      -0.72670000      -0.78270000
C        2.16190000      -0.15060000       0.32860000
C        0.83770000      -0.54350000       1.04660000
C        0.90540000      -1.87750000       0.23230000
C       -0.29070000      -2.80900000       0.08210000
C       -0.06530000      -3.86320000      -0.99690000
O       -1.19620000      -4.72200000      -1.01210000
H        0.87780000       2.14220000      -0.17630000
H       -0.40800000       1.83590000      -1.34560000
H       -0.79600000       2.00870000       0.36590000
H       -0.92330000      -0.35050000      -0.32600000
H        1.47450000      -0.83020000      -1.84400000
H        3.04330000      -0.74680000       0.58130000
H        2.41520000       0.90800000       0.27680000
H        0.60870000      -0.43860000       2.10970000
H        1.79100000      -2.47410000       0.48550000
H       -0.46180000      -3.32830000       1.03370000
H       -1.21850000      -2.27860000      -0.14940000
H        0.07500000      -3.37200000      -1.97350000
H        0.85870000      -4.42520000      -0.78140000
H       -1.06290000      -5.38240000      -1.69800000
