19
Properties=species:S:1:pos:R:3 gdb_69088=T pbc="F F F"
C       -0.22050000       1.52530000       0.05460000
C        0.09100000       0.05170000      -0.02080000
C       -0.64460000      -0.93150000       0.86750000
C        0.84570000      -0.69510000       1.07050000
O        1.73030000      -1.63190000       0.49870000
C        1.36820000      -1.80980000      -0.87120000
C        0.65500000      -0.51780000      -1.31630000
C        1.34070000      -0.07800000       2.26240000
C        1.73500000       0.45650000       3.26500000
H        0.62450000       2.12390000      -0.30320000
H       -1.09360000       1.77500000      -0.55900000
H       -0.43310000       1.83010000       1.08310000
H       -1.30860000      -0.51460000       1.61650000
H       -0.95470000      -1.89480000       0.47610000
H        2.28270000      -2.01880000      -1.43240000
H        0.70430000      -2.67920000      -0.97450000
H       -0.10930000      -0.71700000      -2.07440000
H        1.36670000       0.19980000      -1.73930000
H        2.09030000       0.92160000       4.15080000
