20
Properties=species:S:1:pos:R:3 gdb_18408=T pbc="F F F"
C       -0.01690000       1.51050000       0.01330000
C        1.36650000       2.18640000       0.00850000
C        2.23160000       1.88860000       1.24810000
C        2.88870000       0.52410000       1.17120000
O        2.85170000      -0.32250000       2.32680000
C        2.09750000      -0.71250000       1.17240000
C        0.58330000      -0.68780000       1.25060000
C       -0.05070000      -0.02880000       0.01060000
H       -0.57410000       1.86780000       0.89100000
H       -0.57480000       1.86660000      -0.86160000
H        1.91740000       1.89760000      -0.89740000
H        1.21260000       3.26940000      -0.06540000
H        3.00870000       2.65420000       1.35270000
H        1.62100000       1.93960000       2.15580000
H        3.84570000       0.50320000       0.64610000
H        2.51720000      -1.57340000       0.64810000
H        0.21400000      -1.71400000       1.35680000
H        0.28190000      -0.15350000       2.15780000
H       -1.09860000      -0.34310000      -0.06200000
H        0.44150000      -0.40920000      -0.89520000
