19
Properties=species:S:1:pos:R:3 gdb_117039=T pbc="F F F"
C       -0.03250000       1.54260000       0.04460000
C        0.02770000       0.02040000      -0.04030000
C        0.73370000      -0.48190000      -1.27800000
O        1.21130000       0.23330000      -2.13020000
C        0.83450000      -2.01830000      -1.43400000
O        0.36860000      -2.75510000      -0.60210000
C        1.54980000      -2.48590000      -2.68870000
O        1.57960000      -3.87900000      -2.72170000
C        2.23230000      -4.38310000      -3.86540000
H        0.97140000       1.97540000       0.05340000
H       -0.55960000       1.96330000      -0.81590000
H       -0.55150000       1.85560000       0.95420000
H        0.53230000      -0.42180000       0.82870000
H       -0.97180000      -0.43370000      -0.02450000
H        1.03270000      -2.05160000      -3.56280000
H        2.56000000      -2.03940000      -2.69660000
H        2.20290000      -5.47270000      -3.79830000
H        1.73090000      -4.06800000      -4.79380000
H        3.28260000      -4.05580000      -3.91370000
