16
Properties=species:S:1:pos:R:3 gdb_44351=T pbc="F F F"
O        0.07470000      -0.09100000      -0.13700000
C        0.03270000       1.11700000      -0.05310000
N       -1.16030000       1.81970000       0.13130000
C       -1.28580000       3.21560000      -0.25030000
C       -0.60390000       4.52920000       0.28650000
C        0.86500000       4.49460000       0.82300000
C        1.00440000       3.34880000      -0.16610000
C        1.17610000       2.06590000       0.16400000
C       -0.18440000       3.82560000      -1.00240000
H       -1.99150000       1.25290000       0.03680000
H       -2.29880000       3.43790000      -0.57670000
H       -1.23930000       5.40560000       0.37630000
H        1.35340000       5.43340000       0.53920000
H        1.05600000       4.27030000       1.87590000
H        1.84970000       1.77810000       0.96800000
H       -0.15800000       4.16490000      -2.03080000
