21
Properties=species:S:1:pos:R:3 gdb_76757=T pbc="F F F"
C        0.49760000       1.63580000       0.03290000
C        0.07130000       0.17250000       0.02620000
C        0.82920000      -0.78060000      -0.96880000
O        1.69760000      -0.25380000      -1.94330000
C        1.38550000      -1.58620000       0.22950000
O        1.27890000      -2.98180000       0.18700000
C        2.65700000      -1.00110000       0.92000000
C        1.75530000      -0.33810000       2.00470000
C        0.49210000      -0.75520000       1.21590000
H        1.57670000       1.76750000       0.17190000
H        0.23060000       2.11360000      -0.91490000
H        0.00210000       2.18610000       0.83940000
H       -1.00880000       0.13020000      -0.14060000
H        0.12270000      -1.41120000      -1.51680000
H        2.31540000       0.34460000      -1.51130000
H        1.86330000      -3.30390000      -0.50930000
H        3.31870000      -1.78340000       1.29720000
H        3.25650000      -0.31520000       0.31170000
H        1.82550000      -0.85420000       2.96510000
H        1.89970000       0.72980000       2.18500000
H       -0.32780000      -1.20830000       1.77240000
