19
Properties=species:S:1:pos:R:3 gdb_77944=T pbc="F F F"
C       -0.13280000       1.62580000      -0.01350000
C       -0.03750000       0.10650000       0.00230000
C        1.10000000      -0.69440000      -0.73490000
C        2.07250000      -0.38350000       0.43970000
O        2.64900000       0.89650000       0.47420000
C        0.69440000      -0.69430000       1.14070000
C        0.64890000      -1.86620000       0.15220000
C       -0.16970000      -3.05140000      -0.02650000
O        1.24740000      -3.13090000       0.28260000
H        0.81600000       2.11240000       0.19770000
H       -0.48790000       1.96450000      -0.99370000
H       -0.87130000       1.95620000       0.72650000
H       -1.02850000      -0.31170000      -0.21300000
H        1.33150000      -0.71090000      -1.79980000
H        2.83580000      -1.15300000       0.60570000
H        3.19790000       0.95190000       1.26230000
H        0.46620000      -0.71110000       2.20700000
H       -0.83130000      -3.38850000       0.77000000
H       -0.43870000      -3.38910000      -1.02610000
