20
Properties=species:S:1:pos:R:3 gdb_87810=T pbc="F F F"
C       -0.16680000       1.47010000      -0.03630000
C       -0.03060000      -0.02430000       0.08900000
O        1.30560000      -0.56630000      -0.02780000
C        0.63840000      -0.66810000       1.21700000
C        1.25880000      -0.10800000       2.52070000
C        0.96330000      -1.47150000       3.16810000
C        0.38200000      -2.00260000       1.89490000
N       -0.48750000      -1.69470000       3.05420000
C       -0.94020000      -2.89600000       3.75300000
H        0.60020000       1.98280000       0.54960000
H       -0.06670000       1.78220000      -1.08120000
H       -1.15160000       1.79190000       0.31920000
H       -0.78040000      -0.60900000      -0.44710000
H        2.32710000       0.07820000       2.38440000
H        0.77720000       0.75650000       2.98400000
H        1.54140000      -1.98510000       3.92640000
H        0.41000000      -2.99470000       1.46080000
H       -0.20490000      -3.71860000       3.75450000
H       -1.16760000      -2.63880000       4.79230000
H       -1.85850000      -3.26050000       3.28200000
