17
Properties=species:S:1:pos:R:3 gdb_41446=T pbc="F F F"
C        0.02560000       1.48030000      -0.21970000
N        1.50340000       1.51000000       0.13790000
C        1.36840000       0.19900000       0.84660000
C        1.15120000       0.19990000       2.34800000
O        0.14110000      -0.83310000       2.46880000
C       -0.07470000      -1.23530000       1.15250000
C        1.30220000      -1.29520000       0.35150000
N        0.56980000      -0.94250000      -0.89460000
C        0.00050000      -0.01900000       0.15580000
H       -0.53570000       2.14420000       0.44270000
H       -0.22370000       1.71160000      -1.26000000
H        2.11690000       1.50610000      -0.66960000
H        2.02710000      -0.08420000       2.94230000
H        0.75870000       1.15100000       2.72330000
H       -0.81070000      -2.03490000       1.08540000
H        2.04440000      -2.09890000       0.39640000
H        1.19770000      -0.40390000      -1.49870000
