23
Properties=species:S:1:pos:R:3 gdb_58464=T pbc="F F F"
C        0.07800000       1.53580000      -0.13180000
C        0.03440000       0.02530000       0.12570000
O        0.59630000      -0.29700000       1.38950000
C       -1.38000000      -0.55490000       0.04410000
O       -2.15840000      -0.05990000       1.14130000
C       -2.14980000      -0.50300000      -1.30430000
C       -2.64630000      -1.95490000      -1.04230000
C       -2.67150000      -2.93480000      -2.20400000
C       -1.53020000      -2.09570000       0.03340000
H        1.10500000       1.89710000      -0.03710000
H       -0.28740000       1.78640000      -1.13370000
H       -0.52780000       2.07820000       0.60370000
H        0.65790000      -0.47910000      -0.62290000
H       -0.11330000      -0.14700000       2.02860000
H       -2.38940000       0.85630000       0.95190000
H       -2.90020000       0.28590000      -1.41330000
H       -1.46510000      -0.45600000      -2.15850000
H       -3.62500000      -1.92530000      -0.55460000
H       -1.69740000      -2.97680000      -2.70570000
H       -2.91280000      -3.94810000      -1.86360000
H       -3.41940000      -2.64890000      -2.95240000
H       -0.63400000      -2.58300000      -0.36210000
H       -1.79540000      -2.55080000       0.98900000
