21
Properties=species:S:1:pos:R:3 gdb_97898=T pbc="F F F"
C       -0.01980000       1.59620000       0.05930000
C        0.00410000       0.05750000       0.00300000
C        0.67390000      -0.45940000      -1.18690000
C        1.23340000      -0.85020000      -2.18030000
C        1.91390000      -1.35710000      -3.36630000
C        1.92480000      -2.91360000      -3.44660000
C        0.50180000      -3.49360000      -3.54210000
C        2.75220000      -3.34680000      -4.57040000
C        3.42300000      -3.68330000      -5.50980000
H        0.99610000       2.00040000       0.06330000
H       -0.54250000       2.00820000      -0.80810000
H       -0.53090000       1.93700000       0.96460000
H        0.50100000      -0.33270000       0.90060000
H       -1.02420000      -0.32480000       0.03930000
H        1.43860000      -0.96590000      -4.27480000
H        2.94980000      -0.99980000      -3.38500000
H        2.38340000      -3.28030000      -2.51920000
H       -0.09400000      -3.16170000      -2.68810000
H        0.01150000      -3.15810000      -4.46130000
H        0.52920000      -4.58600000      -3.55190000
H        4.02080000      -3.99230000      -6.33110000
