18
Properties=species:S:1:pos:R:3 gdb_106132=T pbc="F F F"
O        0.05050000       1.26930000      -0.57090000
C        0.02860000       0.07260000       0.19350000
C       -1.35700000      -0.47970000       0.30870000
C       -1.80350000      -1.88840000       0.31060000
C       -2.82050000      -2.06790000       1.37540000
C       -3.25320000      -0.86590000       1.78110000
C       -2.63570000       0.19370000       0.90680000
C       -3.22050000      -0.05120000      -0.52980000
N       -2.10830000      -0.97150000      -0.89740000
H       -0.29260000       1.03940000      -1.44230000
H        0.68660000      -0.69670000      -0.23960000
H        0.42410000       0.33240000       1.18150000
H       -1.13700000      -2.68740000       0.00880000
H       -3.17050000      -3.03560000       1.71060000
H       -4.05540000      -0.67240000       2.48290000
H       -2.59960000       1.21520000       1.27900000
H       -4.23130000      -0.46520000      -0.60130000
H       -3.12760000       0.83550000      -1.16090000
