23
Properties=species:S:1:pos:R:3 gdb_79149=T pbc="F F F"
C       -0.19900000       1.58300000      -0.03000000
C        0.00860000       0.07630000       0.02080000
C        1.23570000      -0.59350000      -0.65660000
C        2.15610000      -0.12910000       0.52210000
C        3.22290000      -1.19520000       0.77100000
C        2.37680000      -2.48840000       0.56660000
C        2.35570000      -3.43180000       1.77100000
C        1.02390000      -1.84240000       0.25720000
C        0.80980000      -0.59000000       1.17310000
H        0.71500000       2.14610000       0.17730000
H       -0.55970000       1.88990000      -1.01830000
H       -0.95290000       1.89430000       0.70210000
H       -0.93750000      -0.43490000      -0.19840000
H        1.49220000      -0.60390000      -1.71940000
H        2.45890000       0.91580000       0.59200000
H        4.05860000      -1.11820000       0.06740000
H        3.64080000      -1.13200000       1.78230000
H        2.73210000      -3.04580000      -0.30910000
H        2.00920000      -2.91330000       2.67230000
H        1.68730000      -4.28300000       1.59970000
H        3.35420000      -3.83010000       1.98080000
H        0.17070000      -2.49650000       0.05950000
H        0.56680000      -0.59120000       2.23870000
