20
Properties=species:S:1:pos:R:3 gdb_14019=T pbc="F F F"
C        0.27860000       1.51510000       0.21620000
C       -0.19050000       0.10260000      -0.15060000
C        0.55040000      -0.47600000      -1.33870000
C        1.88340000      -1.17220000      -1.14840000
C        0.66640000      -1.95690000      -1.53460000
C       -0.02890000      -3.08870000      -0.78220000
O       -0.23960000      -3.80740000      -2.01770000
C        0.41910000      -2.78190000      -2.79350000
H        1.34440000       1.52290000       0.46680000
H        0.13040000       2.20870000      -0.61880000
H       -0.27430000       1.90610000       1.07600000
H       -0.06140000      -0.56180000       0.71370000
H       -1.26780000       0.11770000      -0.36260000
H        0.45440000       0.10700000      -2.25390000
H        2.66040000      -1.02940000      -1.89320000
H        2.25490000      -1.28330000      -0.13300000
H        0.59730000      -3.65540000      -0.08010000
H       -0.97720000      -2.83410000      -0.29010000
H       -0.25290000      -2.33570000      -3.53940000
H        1.31530000      -3.16370000      -3.30130000
