20
Properties=species:S:1:pos:R:3 gdb_126625=T pbc="F F F"
C        0.08000000       1.55720000       0.14810000
C        0.06800000       0.02790000       0.10260000
C        0.57950000      -0.51200000      -1.23740000
N        0.61800000      -1.96370000      -1.27920000
N        1.58050000      -2.63510000      -0.59290000
C        1.26980000      -3.89600000      -0.83630000
N        0.17920000      -4.08280000      -1.62550000
C       -0.21330000      -2.84390000      -1.88800000
C       -1.38530000      -2.46540000      -2.73050000
H        1.09150000       1.95120000       0.00090000
H       -0.56020000       1.98760000      -0.63040000
H       -0.28130000       1.92260000       1.11330000
H        0.69680000      -0.38460000       0.89800000
H       -0.94720000      -0.34890000       0.27630000
H       -0.05560000      -0.17190000      -2.06070000
H        1.59420000      -0.14950000      -1.42880000
H        1.85370000      -4.71060000      -0.43360000
H       -2.12800000      -1.89090000      -2.16660000
H       -1.08780000      -1.86410000      -3.59660000
H       -1.85750000      -3.37950000      -3.09160000
