16
Properties=species:S:1:pos:R:3 gdb_124068=T pbc="F F F"
C       -0.01690000       1.48630000      -0.12980000
O        1.38060000       1.58280000       0.19870000
C        1.44260000       0.18920000       0.55130000
C        0.00970000      -0.06220000       0.00370000
C       -0.98530000      -0.72230000       0.87880000
C       -1.83540000      -1.77210000       0.70310000
C       -2.50640000      -1.87180000       1.95030000
N       -2.10220000      -0.96650000       2.80570000
O       -1.13210000      -0.23170000       2.12580000
H       -0.65210000       1.98390000       0.61270000
H       -0.23770000       1.88110000      -1.12730000
H        2.25500000      -0.33420000       0.03600000
H        1.53560000       0.03970000       1.63360000
H        0.01560000      -0.56400000      -0.96460000
H       -1.96280000      -2.37880000      -0.17770000
H       -3.27090000      -2.57320000       2.25380000
