13
Properties=species:S:1:pos:R:3 gdb_20466=T pbc="F F F"
C        0.32360000       1.50530000       0.12250000
O        1.10940000       0.38190000      -0.26180000
C       -0.27280000       0.16050000       0.04410000
C       -0.57860000      -0.63320000       1.24520000
C       -1.44040000      -1.66510000       1.46290000
C       -1.25670000      -1.96080000       2.83920000
N       -0.36610000      -1.18070000       3.39950000
O        0.06610000      -0.33050000       2.38580000
H        0.55320000       1.92270000       1.10030000
H        0.10770000       2.22430000      -0.66650000
H       -0.89310000      -0.08930000      -0.81480000
H       -2.09600000      -2.14220000       0.75410000
H       -1.74110000      -2.71780000       3.43980000
