21
Properties=species:S:1:pos:R:3 gdb_38245=T pbc="F F F"
C       -0.05970000       1.60560000      -0.03550000
C        1.45960000       1.34170000      -0.00920000
C        1.15120000       0.17150000       0.98110000
C       -0.07270000       0.03820000       0.02870000
C       -1.33370000      -0.79560000      -0.01610000
C       -1.70550000      -0.79000000      -1.54290000
C       -0.44900000      -0.28520000      -2.33570000
C        0.65920000      -0.29210000      -1.27790000
O        1.69590000       0.70580000      -1.28420000
H       -0.44440000       2.05290000       0.88360000
H       -0.46230000       2.11390000      -0.91370000
H        2.21470000       2.10520000       0.17080000
H        1.86120000      -0.65890000       1.02160000
H        0.90860000       0.52820000       1.98400000
H       -1.12760000      -1.81790000       0.32130000
H       -2.14090000      -0.40610000       0.60980000
H       -2.00530000      -1.78950000      -1.86830000
H       -2.56110000      -0.13600000      -1.73040000
H       -0.22080000      -0.92040000      -3.19490000
H       -0.60170000       0.72800000      -2.71570000
H        1.12800000      -1.28540000      -1.23430000
