15
Properties=species:S:1:pos:R:3 gdb_132495=T pbc="F F F"
C       -0.01310000       1.51970000      -0.00190000
C        0.01820000       0.01630000      -0.02660000
C        0.04170000      -0.73090000      -1.19920000
C        0.07010000      -2.12630000      -1.14100000
O        0.09430000      -2.92620000      -2.24330000
C        0.07400000      -2.73380000       0.11240000
N        0.05170000      -2.03100000       1.24800000
C        0.02540000      -0.72590000       1.15860000
F        0.00340000      -0.04890000       2.31330000
H        0.85310000       1.92270000       0.53300000
H       -0.01370000       1.92990000      -1.01460000
H       -0.90330000       1.88640000       0.51940000
H        0.03790000      -0.22280000      -2.16100000
H        0.08840000      -2.37980000      -3.03570000
H        0.09590000      -3.81660000       0.18910000
