20
Properties=species:S:1:pos:R:3 gdb_68009=T pbc="F F F"
C       -0.06790000       1.53650000       0.00440000
C        0.05520000       0.03560000       0.01230000
C        1.02640000      -0.76180000      -0.90230000
C        0.67860000      -1.92090000       0.09190000
C        1.44990000      -3.20840000       0.21200000
C        0.64310000      -0.79580000       1.19710000
C       -0.84270000      -2.02990000      -0.13350000
O       -1.55240000      -3.00460000      -0.12030000
N       -1.20510000      -0.69320000      -0.29800000
H        0.90370000       1.99980000       0.19830000
H       -0.43240000       1.89230000      -0.96460000
H       -0.76340000       1.88250000       0.77790000
H        0.74330000      -0.87500000      -1.95150000
H        2.06520000      -0.43540000      -0.80590000
H        2.50380000      -3.02170000       0.44030000
H        1.02910000      -3.83670000       1.00300000
H        1.39740000      -3.78050000      -0.71990000
H        1.64530000      -0.48040000       1.50120000
H        0.00600000      -0.95240000       2.07270000
H       -2.08830000      -0.38010000       0.08190000
