23
Properties=species:S:1:pos:R:3 gdb_115097=T pbc="F F F"
C       -0.19600000       1.56910000      -0.06480000
C        0.00420000       0.04580000       0.00550000
C        0.77010000      -0.46830000      -1.23130000
C        2.25940000      -0.25280000      -1.12610000
C        2.88340000       0.01920000       0.01950000
C        2.17420000       0.12610000       1.34240000
C        0.74190000      -0.43160000       1.27840000
C       -0.03520000      -0.15300000       2.56160000
O        0.62440000      -0.82640000       3.62740000
H        0.75940000       2.09940000      -0.12010000
H       -0.76990000       1.83420000      -0.95910000
H       -0.74550000       1.95220000       0.80040000
H       -0.99110000      -0.41840000       0.00290000
H        0.56770000      -1.53990000      -1.37650000
H        0.38790000       0.02400000      -2.13540000
H        2.83310000      -0.33570000      -2.04650000
H        3.95990000       0.17560000       0.02370000
H        2.73320000      -0.40680000       2.11880000
H        2.15790000       1.17730000       1.67150000
H        0.82190000      -1.52530000       1.20570000
H       -0.07970000       0.93020000       2.75480000
H       -1.07210000      -0.51140000       2.45060000
H        0.18430000      -0.59230000       4.44940000
