15
Properties=species:S:1:pos:R:3 gdb_24057=T pbc="F F F"
C        0.29040000      -0.19120000      -1.11440000
C        0.15730000       0.52860000      -0.16120000
C        0.05270000       1.40810000       1.00470000
N        1.26520000       2.19730000       1.28330000
C        1.57720000       3.23120000       0.41810000
C        2.71410000       3.68320000      -0.17560000
N        2.42830000       4.86940000      -0.84850000
C        1.17140000       5.05960000      -0.64960000
O        0.57240000       4.10590000       0.12460000
H        0.39540000      -0.82300000      -1.96180000
H       -0.77610000       2.11000000       0.87830000
H       -0.16870000       0.81820000       1.90020000
H        2.07110000       1.60510000       1.43710000
H        3.70090000       3.25050000      -0.16850000
H        0.53400000       5.84790000      -1.01540000
