15
Properties=species:S:1:pos:R:3 gdb_128939=T pbc="F F F"
N       -0.02090000      -1.13200000       0.22830000
C        0.01650000       0.01010000       0.06290000
C        0.06320000       1.45480000      -0.17750000
N        1.32660000       2.01350000       0.27810000
C        1.50380000       3.38900000       0.12340000
N        2.71660000       3.87060000      -0.13670000
N        2.54170000       5.21370000      -0.14660000
C        1.26440000       5.58290000       0.07930000
C        0.54190000       4.42170000       0.26250000
H       -0.14470000       1.63260000      -1.24640000
H       -0.75750000       1.91580000       0.38340000
H        2.13240000       1.50280000      -0.06060000
H        3.33630000       5.80300000      -0.32240000
H        0.96470000       6.61890000       0.09740000
H       -0.51080000       4.34290000       0.47580000
