20
Properties=species:S:1:pos:R:3 gdb_104253=T pbc="F F F"
C       -0.23440000       1.53890000       0.06540000
C        0.26740000       0.10070000      -0.10040000
C        0.84260000      -0.49350000       1.18700000
C        2.08410000       0.21930000       1.69710000
O       -0.18030000      -0.55820000       2.22650000
C       -0.28100000      -1.98500000       2.13830000
C        0.94790000      -2.06410000       1.19790000
C        0.81040000      -2.79490000      -0.04730000
N        0.69360000      -3.37810000      -1.03910000
H        0.58240000       2.24210000       0.25270000
H       -0.74990000       1.86840000      -0.84080000
H       -0.93800000       1.60180000       0.90040000
H       -0.56180000      -0.53330000      -0.43290000
H        1.03030000       0.04420000      -0.88650000
H        1.86040000       1.26480000       1.92420000
H        2.44920000      -0.25160000       2.61390000
H        2.88050000       0.19220000       0.94590000
H       -0.16380000      -2.47370000       3.11070000
H       -1.21900000      -2.31390000       1.67610000
H        1.84870000      -2.40320000       1.71410000
