22
Properties=species:S:1:pos:R:3 gdb_105800=T pbc="F F F"
C        0.06620000       1.49620000       0.25190000
C       -0.02820000      -0.00130000      -0.07500000
C       -1.44250000      -0.51530000      -0.06720000
C       -2.15490000      -1.03360000       1.16010000
C       -3.43230000      -0.55300000       1.84470000
C       -1.96120000      -1.95950000      -0.02680000
C       -2.84620000      -1.65700000      -1.26260000
N       -3.79640000      -0.56250000      -0.93940000
C       -2.38240000      -0.25920000      -1.29070000
H        1.10280000       1.84570000       0.21530000
H       -0.51230000       2.09460000      -0.46040000
H       -0.32800000       1.70330000       1.25190000
H        0.42610000      -0.18930000      -1.05830000
H        0.56430000      -0.57490000       0.64850000
H       -1.39220000      -1.29940000       1.89420000
H       -4.21830000      -1.31150000       1.80320000
H       -3.22290000      -0.34410000       2.90010000
H       -3.83270000       0.34880000       1.38540000
H       -1.37790000      -2.87000000       0.05200000
H       -3.04000000      -2.34580000      -2.07460000
H       -4.34560000      -0.39340000      -1.78300000
H       -2.13740000       0.38190000      -2.12830000
