16
Properties=species:S:1:pos:R:3 gdb_66693=T pbc="F F F"
O       -0.10790000       1.30930000       0.15780000
C        0.04640000      -0.05100000       0.07140000
C       -0.57640000      -1.08670000      -0.84180000
N        0.47210000      -2.07050000      -0.35130000
C        1.26480000      -0.94410000       0.34940000
C        1.06640000      -1.63710000       1.71130000
C       -0.20850000      -2.17390000       1.03230000
C       -1.06690000      -0.98030000       0.58740000
O       -2.20590000      -0.44190000       1.13010000
H        0.31420000       1.71400000      -0.60790000
H       -1.03960000      -1.07530000      -1.82070000
H        2.24660000      -0.67660000      -0.04510000
H        1.80180000      -2.42960000       1.87090000
H        0.96390000      -1.01800000       2.60530000
H       -0.67890000      -3.11850000       1.31080000
H       -2.95020000      -1.01070000       0.90480000
