19
Properties=species:S:1:pos:R:3 gdb_57729=T pbc="F F F"
C       -0.15870000       1.56220000       0.39950000
C        0.01190000       0.05250000       0.12970000
C        0.83370000      -0.59580000       1.26330000
C       -1.34510000      -0.64260000      -0.03600000
O       -2.10210000      -0.52200000       1.17510000
C       -3.36330000      -0.05510000       1.10160000
O       -4.06310000       0.06480000       2.06090000
C        0.79430000      -0.10140000      -1.16610000
O        0.38810000      -0.64340000      -2.16220000
H        0.81380000       2.06240000       0.44560000
H       -0.75090000       2.04590000      -0.38440000
H       -0.66180000       1.71710000       1.35740000
H        0.30900000      -0.48000000       2.21460000
H        0.98510000      -1.66520000       1.08470000
H        1.81660000      -0.12250000       1.35290000
H       -1.89810000      -0.20910000      -0.87680000
H       -1.20640000      -1.70770000      -0.24160000
H       -3.66540000       0.20020000       0.06710000
H        1.81540000       0.34470000      -1.12890000
