17
Properties=species:S:1:pos:R:3 gdb_34021=T pbc="F F F"
C       -0.01020000      -1.14290000       0.06070000
C       -0.01390000       0.05840000       0.02640000
C       -0.00060000       1.49410000      -0.04020000
C        0.48600000       2.15970000      -1.31140000
C        1.33770000       2.21950000      -0.06130000
C        1.41790000       3.50450000       0.75670000
O        0.36250000       3.60290000       1.70840000
C       -0.87550000       3.38760000       1.10920000
O       -1.06300000       2.04870000       0.69610000
H       -0.01260000      -2.20400000       0.09990000
H        0.79890000       1.51590000      -2.12430000
H       -0.01960000       3.06970000      -1.62000000
H        2.21920000       1.58970000      -0.03660000
H        2.34300000       3.52760000       1.33630000
H        1.40560000       4.38960000       0.10090000
H       -1.64570000       3.57370000       1.85970000
H       -1.01350000       4.07470000       0.25360000
