20
Properties=species:S:1:pos:R:3 gdb_8716=T pbc="F F F"
C       -0.01510000       1.36060000       0.03650000
O        0.05930000      -0.05430000      -0.08050000
C        0.71300000      -0.60820000      -1.25130000
C        0.61290000      -2.12110000      -1.05280000
C       -0.03960000      -0.16530000      -2.51640000
O       -1.42230000      -0.44830000      -2.42910000
C        2.18020000      -0.15060000      -1.28380000
O        2.83970000      -0.41920000      -0.06210000
H        0.97410000       1.83320000       0.08420000
H       -0.58360000       1.82270000      -0.78050000
H       -0.53790000       1.55710000       0.97580000
H       -0.43330000      -2.42760000      -0.99970000
H        1.08280000      -2.64120000      -1.89270000
H        1.12380000      -2.41730000      -0.13490000
H        0.13470000       0.90660000      -2.70210000
H        0.35280000      -0.70830000      -3.38280000
H       -1.67100000      -0.29450000      -1.50940000
H        2.71390000      -0.69310000      -2.07150000
H        2.23480000       0.92040000      -1.53660000
H        2.18880000      -0.26760000       0.63410000
