13
Properties=species:S:1:pos:R:3 gdb_132808=T pbc="F F F"
O        0.07870000       1.37640000       0.09410000
C        0.05350000       0.02190000       0.04760000
C        0.04870000      -0.68390000      -1.15490000
F        0.07070000       0.06060000      -2.27920000
C        0.02310000      -2.06540000      -1.21640000
C        0.00110000      -2.78250000      -0.02210000
C        0.00510000      -2.11350000       1.20010000
C        0.03110000      -0.72760000       1.22490000
F        0.03510000      -0.07410000       2.38790000
H        0.09120000       1.69780000      -0.81610000
H        0.02080000      -2.55290000      -2.18340000
H       -0.01910000      -3.86530000      -0.04330000
H       -0.01170000      -2.64740000       2.14250000
