21
Properties=species:S:1:pos:R:3 gdb_41932=T pbc="F F F"
C       -0.04370000       1.42290000       0.04180000
C        1.42190000       1.94850000      -0.00610000
C        2.19870000       0.70980000       0.46140000
C        3.64450000       0.48850000       0.12340000
C        4.08900000      -0.74900000      -0.11030000
C        3.22570000      -1.99330000      -0.09960000
C        1.76250000      -1.75590000       0.35420000
C        1.33930000      -0.39240000      -0.15270000
O        0.01240000      -0.00800000       0.16120000
H       -0.59470000       1.80750000       0.90690000
H       -0.59840000       1.70230000      -0.86370000
H        1.70580000       2.22150000      -1.02800000
H        1.56790000       2.82620000       0.62820000
H        2.07100000       0.64000000       1.55300000
H        4.32720000       1.33410000       0.10340000
H        5.14090000      -0.90730000      -0.33960000
H        3.23290000      -2.42410000      -1.11150000
H        3.69290000      -2.75630000       0.53590000
H        1.11160000      -2.54910000      -0.02630000
H        1.69040000      -1.77230000       1.44780000
H        1.48360000      -0.36930000      -1.24980000
