15
Properties=species:S:1:pos:R:3 gdb_27197=T pbc="F F F"
C        0.07030000       1.48510000       0.00540000
C       -0.06210000       0.00780000       0.03520000
C       -1.11380000      -0.86270000      -0.04660000
N       -2.49930000      -0.90510000      -0.18670000
C       -2.77150000      -2.17780000      -0.17720000
N       -1.67350000      -3.01740000      -0.04070000
C       -0.57200000      -2.18590000       0.04730000
C        0.77490000      -2.07590000       0.18150000
O        1.07820000      -0.73300000       0.17310000
H        0.69690000       1.82090000      -0.82930000
H       -0.92050000       1.93030000      -0.10860000
H        0.51790000       1.87250000       0.92820000
H       -3.76580000      -2.59550000      -0.26640000
H       -1.69820000      -4.02090000      -0.01370000
H        1.60750000      -2.74750000       0.28610000
