20
Properties=species:S:1:pos:R:3 gdb_5834=T pbc="F F F"
C       -0.02870000       1.53230000       0.05200000
C       -0.01250000      -0.00700000       0.05760000
C        0.69570000      -0.51280000       1.32590000
C       -1.45990000      -0.52750000       0.00300000
C        0.78150000      -0.46960000      -1.20730000
O        2.07110000       0.08230000      -1.22990000
C        0.87990000      -1.97730000      -1.33700000
O        1.94940000      -2.53670000      -1.41140000
H        0.98750000       1.93180000       0.04080000
H       -0.55570000       1.91870000      -0.82770000
H       -0.54220000       1.90930000       0.94300000
H        0.20330000      -0.12230000       2.22220000
H        0.68200000      -1.60680000       1.39080000
H        1.73830000      -0.18520000       1.33730000
H       -1.94970000      -0.25580000      -0.93920000
H       -1.52270000      -1.61420000       0.11790000
H       -2.04470000      -0.08420000       0.81540000
H        0.20700000      -0.12890000      -2.09010000
H        2.67520000      -0.67240000      -1.31800000
H       -0.06870000      -2.54490000      -1.38290000
