18
Properties=species:S:1:pos:R:3 gdb_81180=T pbc="F F F"
C       -0.25180000       1.57040000      -0.40530000
C       -0.03800000       0.10010000      -0.11470000
N        1.23910000      -0.59890000      -0.65630000
C        1.98810000       0.03800000       0.52540000
C        0.66060000      -0.44420000       1.14930000
C        0.89020000      -1.72490000       0.33320000
O        0.17030000      -0.36010000       2.46890000
C        0.94740000       0.20080000       3.42020000
O        0.59850000       0.30550000       4.55660000
H        0.56580000       2.21680000      -0.07990000
H       -0.39030000       1.71750000      -1.48100000
H       -1.16320000       1.90850000       0.09820000
H       -0.92620000      -0.46730000      -0.40960000
H        2.90110000      -0.49970000       0.79000000
H        2.17830000       1.10450000       0.41540000
H        0.01800000      -2.31240000       0.04020000
H        1.74440000      -2.35430000       0.59030000
H        1.92230000       0.54450000       3.02960000
