16
Properties=species:S:1:pos:R:3 gdb_10092=T pbc="F F F"
C        0.07560000       1.34130000       0.01660000
N        0.04770000      -0.10630000       0.09990000
C       -1.05350000      -0.74060000       0.16210000
C       -0.98630000      -2.25640000       0.24690000
O        0.34150000      -2.69230000       0.24040000
N       -2.30650000      -0.11320000       0.15570000
C       -3.56140000      -0.68540000       0.21880000
O       -3.80420000      -1.86360000       0.29180000
H        1.11250000       1.68040000      -0.02710000
H       -0.43120000       1.71830000      -0.88500000
H       -0.38940000       1.82000000       0.89220000
H       -1.51210000      -2.58360000       1.15500000
H       -1.55330000      -2.68310000      -0.59250000
H        0.87270000      -1.87990000       0.18140000
H       -2.29380000       0.89490000       0.09840000
H       -4.34640000       0.09500000       0.19320000
