17
Properties=species:S:1:pos:R:3 gdb_62998=T pbc="F F F"
C       -0.06580000       1.55120000       0.01800000
C        0.01620000       0.03560000       0.01340000
O       -1.23530000      -0.57620000       0.20820000
C        0.68200000      -0.63860000      -1.20200000
O        2.03710000      -0.19020000      -1.24110000
C        1.70300000      -1.28250000      -0.36940000
C        1.15700000      -0.66270000       0.92430000
C        2.07810000       0.22770000       1.70990000
O        1.90620000       0.50770000       2.87250000
H        0.89020000       1.98930000      -0.27900000
H       -0.84060000       1.88330000      -0.67980000
H       -0.31350000       1.92530000       1.01830000
H       -1.64890000      -0.18070000       0.98370000
H        0.21200000      -0.94110000      -2.13020000
H        2.24370000      -2.21080000      -0.50760000
H        0.66160000      -1.37710000       1.58390000
H        2.93050000       0.64930000       1.13550000
