18
Properties=species:S:1:pos:R:3 gdb_88501=T pbc="F F F"
C        0.04820000       1.56560000      -0.45240000
N       -0.01290000       0.15780000      -0.07410000
C        1.19610000      -0.64990000      -0.16620000
C        0.60730000      -0.30860000       1.16020000
C        1.30970000       0.58280000       2.16220000
C        0.48090000       1.18160000       3.26050000
N        1.42110000       0.10630000       3.56080000
C        2.48580000       1.30230000       1.71770000
N        3.41530000       1.88120000       1.34600000
H        1.01590000       2.05080000      -0.26740000
H       -0.17020000       1.64040000      -1.52170000
H       -0.72820000       2.11600000       0.08820000
H        1.07900000      -1.64750000      -0.58160000
H        2.12800000      -0.15060000      -0.42830000
H        0.00900000      -1.06200000       1.67560000
H        0.74800000       2.15210000       3.66620000
H       -0.58420000       0.96690000       3.22700000
H        0.94150000      -0.78740000       3.64730000
