15
Properties=species:S:1:pos:R:3 gdb_44443=T pbc="F F F"
O        0.02810000       0.01280000      -0.38790000
C       -0.00540000       1.16830000      -0.05250000
C       -1.28250000       1.94510000       0.27070000
C       -0.96150000       3.37740000       0.65820000
C        0.22190000       4.04470000      -0.02250000
O        1.06510000       3.17410000      -0.75010000
C        1.23480000       2.05200000       0.10550000
O        1.23550000       2.54360000       1.43910000
C        0.33360000       3.63160000       1.41160000
H       -1.93780000       1.90430000      -0.60690000
H       -1.80670000       1.41930000       1.07680000
H       -1.79900000       4.02110000       0.90880000
H        0.21790000       5.05430000      -0.40890000
H        2.16850000       1.53410000      -0.11630000
H        0.42640000       4.28280000       2.26950000
