20
Properties=species:S:1:pos:R:3 gdb_77968=T pbc="F F F"
C        0.07210000       1.61580000       0.12760000
C        0.08310000       0.11310000      -0.08650000
C        1.33240000      -0.72490000      -0.52130000
C        1.91710000      -0.60360000       0.91600000
C        2.62150000       0.61240000       1.44350000
O        3.37090000       1.30410000       0.79730000
C        0.38410000      -0.91890000       1.04320000
N        0.50880000      -1.92900000      -0.08320000
C        1.16510000      -3.20660000       0.15600000
H        0.14150000       2.13340000      -0.83510000
H       -0.87700000       1.91060000       0.58860000
H        0.87630000       1.99890000       0.75540000
H       -0.79160000      -0.19950000      -0.66190000
H        1.86660000      -0.70730000      -1.47200000
H        2.54660000      -1.44800000       1.22470000
H        2.45900000       0.80680000       2.53100000
H       -0.19300000      -1.13420000       1.94520000
H        0.46790000      -3.85520000       0.69640000
H        1.36990000      -3.67340000      -0.81290000
H        2.11080000      -3.18740000       0.72210000
