18
Properties=species:S:1:pos:R:3 gdb_69165=T pbc="F F F"
C       -0.02080000       1.53270000       0.05780000
C        0.07620000       0.04180000       0.00230000
N       -0.79580000      -0.87380000       0.73650000
C        0.68830000      -0.92640000       0.99910000
C        1.27320000      -1.70790000      -0.13700000
O        2.15900000      -2.50850000      -0.25130000
C        0.58950000      -0.78220000      -1.20700000
C       -0.41380000      -1.35930000      -2.18640000
O        1.62210000      -0.05130000      -1.85070000
H        0.87710000       1.98070000      -0.37420000
H       -0.88680000       1.88910000      -0.51150000
H       -0.12750000       1.88300000       1.08990000
H       -1.19250000      -0.35890000       1.52390000
H        1.07750000      -0.76280000       1.99650000
H       -1.25360000      -1.81270000      -1.65580000
H       -0.78490000      -0.57240000      -2.85090000
H        0.06460000      -2.12740000      -2.80370000
H        2.26550000      -0.69200000      -2.17720000
