15
Properties=species:S:1:pos:R:3 gdb_1640=T pbc="F F F"
C        0.02360000       1.42710000       0.09140000
N        0.02590000      -0.02320000       0.06300000
C        0.62340000      -0.58720000      -0.91890000
N        1.29820000      -0.00320000      -1.95570000
C        0.64470000      -2.10370000      -0.98170000
C        0.04050000      -2.85660000       0.17560000
O        1.13640000      -2.64980000      -1.94820000
H        1.04330000       1.84340000       0.07770000
H       -0.51510000       1.85820000      -0.76900000
H       -0.47410000       1.77760000       0.99850000
H        1.11970000       0.95780000      -2.19020000
H        1.55360000      -0.63010000      -2.70470000
H       -0.99070000      -2.53400000       0.33870000
H        0.08700000      -3.92710000      -0.02630000
H        0.58090000      -2.61850000       1.09660000
