15
Properties=species:S:1:pos:R:3 gdb_51435=T pbc="F F F"
N       -0.29970000       1.22760000      -0.08100000
C       -0.06650000      -0.00180000      -0.02830000
C        1.13670000      -0.95000000       0.11220000
O        1.97490000      -0.76560000       1.24000000
C        3.31700000      -0.78400000       1.05710000
O        4.08790000      -0.64660000       1.95380000
C        0.10880000      -2.07030000       0.15330000
C       -0.95010000      -1.79940000       1.13800000
N       -1.02530000      -1.08130000      -0.16580000
H        0.55780000       1.76910000       0.04280000
H        1.72980000      -0.97040000      -0.81050000
H        3.59990000      -0.93600000      -0.00310000
H        0.19090000      -3.00490000      -0.38780000
H       -1.73250000      -2.54280000       1.24550000
H       -0.72990000      -1.22760000       2.03470000
