20
Properties=species:S:1:pos:R:3 gdb_26357=T pbc="F F F"
C        0.26350000       1.09590000      -0.49720000
N        0.01980000      -0.17500000       0.18550000
C        0.54420000      -0.17850000       1.53880000
C       -1.31170000      -0.63970000       0.06830000
C       -2.28430000      -0.76470000       1.04260000
N       -3.40240000      -1.29270000       0.45140000
C       -3.16700000      -1.51310000      -0.89010000
C       -1.87530000      -1.12050000      -1.15710000
N       -1.18650000      -1.11210000      -2.38780000
H        1.34110000       1.29050000      -0.53160000
H       -0.11470000       1.04300000      -1.52030000
H       -0.22530000       1.94710000       0.00960000
H        0.06390000       0.57140000       2.19560000
H        0.40230000      -1.16600000       1.98630000
H        1.61610000       0.04440000       1.51510000
H       -2.26170000      -0.53780000       2.09510000
H       -4.24870000      -1.53420000       0.93220000
H       -3.92550000      -1.92970000      -1.53280000
H       -1.57660000      -1.77130000      -3.05020000
H       -0.20810000      -1.33870000      -2.23960000
