18
Properties=species:S:1:pos:R:3 gdb_23243=T pbc="F F F"
C       -0.07760000       1.54470000      -0.03910000
C        0.10330000       0.04020000      -0.08000000
C        0.75610000      -0.73750000      -1.17810000
C        1.39550000      -0.68750000       0.24510000
C        2.55850000      -0.00250000      -0.36660000
N        3.74190000       0.15750000       0.06110000
O        4.55260000       0.68790000      -0.98560000
C        1.95250000       0.02200000      -1.77660000
O        2.68570000      -0.78190000      -2.67150000
H        0.80980000       2.08020000      -0.38390000
H       -0.92200000       1.85210000      -0.66540000
H       -0.28240000       1.87470000       0.98460000
H       -0.74510000      -0.50030000       0.33660000
H        0.29930000      -1.58760000      -1.66740000
H        1.45260000      -1.44790000       1.01370000
H        5.42360000       0.70650000      -0.57590000
H        1.72880000       1.00580000      -2.21010000
H        3.59520000      -0.45840000      -2.63460000
