19
Properties=species:S:1:pos:R:3 gdb_71796=T pbc="F F F"
C        0.01920000       1.49360000       0.02190000
C       -0.05480000      -0.01080000      -0.01220000
C       -1.31750000      -0.73410000      -0.47110000
C       -0.82500000      -2.15650000      -0.30050000
C        0.64700000      -2.27760000      -0.80510000
O        0.96050000      -3.12610000       0.33880000
C       -0.01360000      -2.28650000       1.02650000
C        0.61710000      -0.87890000       1.03550000
C        1.13390000      -0.87190000      -0.39740000
H        0.99660000       1.83710000       0.37530000
H       -0.14270000       1.92000000      -0.97470000
H       -0.74200000       1.91180000       0.69050000
H       -2.18220000      -0.50370000       0.16290000
H       -1.57920000      -0.49550000      -1.50910000
H       -1.47470000      -2.99510000      -0.53890000
H        0.94750000      -2.69810000      -1.76370000
H       -0.39280000      -2.71620000       1.95260000
H        1.17530000      -0.47920000       1.87130000
H        2.09580000      -0.46670000      -0.68100000
