22
Properties=species:S:1:pos:R:3 gdb_76903=T pbc="F F F"
C        0.21450000       1.57270000      -0.09200000
C        0.08440000       0.06060000      -0.09530000
C        0.66480000      -0.75870000      -1.28500000
O        1.73950000      -0.18000000      -1.99980000
C        2.97400000      -0.47210000      -1.33550000
C        2.75600000      -1.80250000      -0.59870000
C        1.28140000      -1.70010000      -0.21850000
N        0.98870000      -0.68160000       0.81460000
C        0.48590000      -1.11550000       2.09730000
H        1.22650000       1.87540000      -0.37050000
H       -0.48540000       2.02040000      -0.80560000
H       -0.01020000       1.98000000       0.89960000
H       -0.97000000      -0.23100000       0.05970000
H       -0.05850000      -1.14400000      -2.00560000
H        3.75650000      -0.51190000      -2.09840000
H        3.21980000       0.32180000      -0.61860000
H        2.91330000      -2.65360000      -1.27020000
H        3.41150000      -1.91230000       0.26900000
H        0.77830000      -2.66340000      -0.06510000
H        1.24440000      -1.71170000       2.61620000
H        0.26310000      -0.24630000       2.72530000
H       -0.43540000      -1.72570000       2.02250000
