19
Properties=species:S:1:pos:R:3 gdb_115637=T pbc="F F F"
O       -0.11830000       1.40870000      -0.11850000
C       -0.09380000       0.04830000       0.28870000
C       -1.46930000      -0.52760000       0.01680000
C       -1.81980000      -0.74550000      -1.47260000
O       -1.83880000      -2.18780000      -1.30190000
C       -1.60360000      -2.04360000       0.09430000
C       -0.83770000      -3.05570000       0.89780000
C       -2.33120000      -2.84220000       1.11700000
O       -2.77340000      -2.14250000       2.24300000
H        0.75640000       1.78250000       0.02140000
H        0.66330000      -0.52540000      -0.26960000
H        0.14230000      -0.04660000       1.36060000
H       -2.22100000       0.01720000       0.59070000
H       -2.79620000      -0.36440000      -1.78980000
H       -1.05340000      -0.42990000      -2.18820000
H       -0.52950000      -3.96740000       0.39630000
H       -0.15820000      -2.68980000       1.66150000
H       -2.99670000      -3.62200000       0.74600000
H       -2.66030000      -2.71060000       3.01270000
