18
Properties=species:S:1:pos:R:3 gdb_119825=T pbc="F F F"
O       -0.16470000       1.46200000       0.01170000
C        0.03150000       0.05450000       0.00260000
C       -1.35520000      -0.57670000       0.01220000
C       -1.32300000      -2.07160000       0.00420000
N       -0.26700000      -2.79350000      -0.00590000
C       -0.71850000      -4.18970000      -0.01020000
C       -2.24540000      -4.15610000      -0.00080000
N       -3.02450000      -5.15870000      -0.00150000
N       -2.52090000      -2.78860000       0.00810000
H        0.70000000       1.88200000       0.00760000
H        0.58210000      -0.27680000      -0.88800000
H        0.59850000      -0.28600000       0.87920000
H       -1.90500000      -0.22650000       0.89550000
H       -1.92130000      -0.21750000      -0.85710000
H       -0.34390000      -4.71660000      -0.89430000
H       -0.33340000      -4.72530000       0.86420000
H       -4.00720000      -4.87910000       0.00590000
H       -3.44340000      -2.38640000       0.01500000
