20
Properties=species:S:1:pos:R:3 gdb_82074=T pbc="F F F"
C        0.11950000       1.74670000      -0.93330000
C       -0.05640000       0.35540000      -0.33720000
C        0.76310000      -0.80650000      -0.90560000
C        2.19190000      -0.68250000      -0.57060000
N        1.28340000      -1.23790000       0.45750000
C        0.55450000      -0.05380000       1.04480000
C        1.37660000       0.91110000       1.88630000
C        2.46850000       0.29350000       2.73800000
O        1.12420000       2.09510000       1.90940000
H        1.16930000       2.04590000      -0.98590000
H       -0.28920000       1.76880000      -1.94990000
H       -0.40040000       2.49630000      -0.33280000
H       -1.11940000       0.09870000      -0.33800000
H        0.39970000      -1.53690000      -1.62150000
H        2.87100000      -1.42920000      -0.96960000
H        2.63940000       0.29820000      -0.42250000
H       -0.22260000      -0.44130000       1.71540000
H        3.23890000      -0.15820000       2.10530000
H        2.91110000       1.05860000       3.37670000
H        2.05840000      -0.51880000       3.34830000
