18
Properties=species:S:1:pos:R:3 gdb_113913=T pbc="F F F"
N       -0.21800000       1.28820000       0.14360000
C       -0.01930000      -0.06030000       0.24750000
O        0.88570000      -0.59320000       0.84100000
O       -1.01720000      -0.71780000      -0.40780000
C       -0.98070000      -2.12810000      -0.29840000
C       -1.90380000      -2.79350000       0.67660000
C       -2.17970000      -2.86230000      -0.81460000
C       -3.35860000      -2.12400000      -1.39240000
O       -4.50970000      -2.94110000      -1.21950000
H        0.56560000       1.86880000       0.38830000
H       -0.85710000       1.63040000      -0.55370000
H        0.01020000      -2.53640000      -0.45450000
H       -1.55820000      -3.67820000       1.19860000
H       -2.55000000      -2.14370000       1.25680000
H       -1.97540000      -3.80940000      -1.30570000
H       -3.47310000      -1.15390000      -0.88850000
H       -3.17760000      -1.91850000      -2.45980000
H       -5.25230000      -2.49960000      -1.64210000
