17
Properties=species:S:1:pos:R:3 gdb_48847=T pbc="F F F"
O        0.02610000       0.03990000       0.38660000
C        0.09470000       1.18180000       0.01750000
C        1.31450000       2.03340000       0.07270000
C        1.08790000       3.53980000       0.21080000
C        1.52500000       2.98090000      -1.10910000
O        2.83660000       3.20240000      -1.52510000
C        3.68650000       2.08440000      -1.27800000
C        3.68990000       1.76150000       0.20470000
O        2.39250000       1.39530000       0.66680000
H       -0.78500000       1.71560000      -0.41410000
H        0.06970000       3.89680000       0.32270000
H        1.83610000       4.08250000       0.77640000
H        0.80990000       2.94670000      -1.92960000
H        3.35830000       1.21100000      -1.85990000
H        4.68490000       2.37790000      -1.61180000
H        4.33890000       0.90820000       0.42140000
H        4.06240000       2.63290000       0.76370000
