18
Properties=species:S:1:pos:R:3 gdb_68031=T pbc="F F F"
O       -0.12780000       1.38100000       0.05600000
C        0.03950000       0.00060000       0.06290000
C        0.93910000      -0.78290000      -0.96590000
C        0.74020000      -1.91360000       0.11280000
O        1.50320000      -3.07460000       0.17210000
C        0.79220000      -0.78080000       1.17990000
C       -0.76890000      -2.17040000      -0.05290000
N       -1.61590000      -1.66550000       1.05480000
C       -1.27610000      -0.78490000      -0.08910000
H        0.73610000       1.79480000       0.14920000
H        0.54380000      -0.95380000      -1.97100000
H        1.96740000      -0.40770000      -1.01040000
H        2.42850000      -2.82850000       0.27030000
H        1.81290000      -0.40400000       1.30100000
H        0.30070000      -0.93570000       2.13710000
H       -1.11130000      -2.97120000      -0.69770000
H       -2.56210000      -2.01550000       0.91440000
H       -2.04350000      -0.42480000      -0.76400000
