21
Properties=species:S:1:pos:R:3 gdb_53447=T pbc="F F F"
C       -0.00600000       1.50570000       0.00150000
C        0.01590000       0.04960000       0.01010000
C        0.03890000      -1.15480000       0.01020000
C        0.04970000      -2.61400000       0.03540000
C        0.71220000      -3.17310000       1.31610000
C        0.63060000      -4.70080000       1.33080000
O       -0.70400000      -5.16330000       1.21880000
C       -1.31370000      -4.73790000       0.01260000
C       -1.37020000      -3.21290000      -0.09570000
H        0.56660000       1.90890000      -0.84120000
H       -1.02930000       1.88880000      -0.08150000
H        0.42610000       1.91670000       0.92080000
H        0.63880000      -2.97190000      -0.82350000
H        1.75700000      -2.85070000       1.37630000
H        0.19220000      -2.77200000       2.19330000
H        1.24300000      -5.11530000       0.50980000
H        1.01690000      -5.10440000       2.27140000
H       -0.76690000      -5.15370000      -0.85280000
H       -2.31950000      -5.16810000       0.00930000
H       -2.00310000      -2.81390000       0.70490000
H       -1.82090000      -2.91900000      -1.04950000
