16
Properties=species:S:1:pos:R:3 gdb_13968=T pbc="F F F"
O        0.04010000      -0.00910000      -0.23430000
C        0.10680000       1.17890000      -0.31760000
O        1.02540000       1.90310000       0.36600000
C        0.97540000       3.29560000       0.23190000
C        1.13120000       3.99350000      -1.08690000
C        2.13670000       4.24950000       0.01540000
C        1.54040000       5.21580000       1.04810000
C        0.36900000       4.20490000       1.29980000
H       -0.54640000       1.80920000      -0.94790000
H        1.50210000       3.36540000      -1.89070000
H        0.43320000       4.76690000      -1.40070000
H        3.18700000       4.02740000      -0.12320000
H        2.16810000       5.35380000       1.92990000
H        1.25450000       6.19770000       0.65950000
H       -0.65370000       4.55360000       1.12470000
H        0.42820000       3.75430000       2.29250000
