21
Properties=species:S:1:pos:R:3 gdb_115057=T pbc="F F F"
C       -0.05370000       1.39850000      -0.12700000
O       -0.01290000       0.01400000       0.11910000
C       -1.28020000      -0.62650000       0.04450000
C       -1.67760000      -0.93650000      -1.42630000
C       -1.27780000      -2.38190000      -1.60040000
C       -1.00140000      -2.96540000      -0.43700000
C       -1.16420000      -2.01620000       0.72770000
C       -0.06550000      -2.11480000       1.78470000
O       -0.19350000      -3.39800000       2.38990000
H        0.96380000       1.77920000      -0.00720000
H       -0.39680000       1.63750000      -1.14490000
H       -0.71450000       1.91760000       0.58580000
H       -2.02620000       0.00720000       0.54580000
H       -2.75590000      -0.79830000      -1.58720000
H       -1.16960000      -0.26030000      -2.12320000
H       -1.25280000      -2.86720000      -2.56980000
H       -0.71610000      -3.99960000      -0.28870000
H       -2.10880000      -2.23830000       1.24580000
H        0.91750000      -1.98700000       1.31550000
H       -0.18630000      -1.31070000       2.52650000
H        0.55960000      -3.52730000       2.97310000
