19
Properties=species:S:1:pos:R:3 gdb_28566=T pbc="F F F"
C       -0.42600000       1.51390000      -0.09990000
C       -0.14970000       0.04770000      -0.11440000
C        0.15640000      -0.80910000      -1.14420000
C        0.33220000      -2.11880000      -0.60190000
C        0.12370000      -2.02220000       0.75530000
N       -0.16780000      -0.70940000       1.04130000
N        0.08850000      -2.96660000       1.79480000
C        0.81720000      -4.21170000       1.60320000
C        1.32190000      -3.20110000       2.57000000
H        0.29650000       2.06990000       0.51180000
H       -0.36880000       1.90970000      -1.11660000
H       -1.42620000       1.74690000       0.28850000
H        0.24940000      -0.52660000      -2.18230000
H        0.56050000      -3.02070000      -1.14740000
H       -0.40870000      -0.37760000       1.95950000
H        0.30920000      -5.10530000       1.95310000
H        1.38100000      -4.33230000       0.68180000
H        2.20620000      -2.63820000       2.28210000
H        1.17770000      -3.33770000       3.63730000
