25
Properties=species:S:1:pos:R:3 gdb_100118=T pbc="F F F"
C        0.33680000       1.48420000       0.21770000
C        0.04270000       0.00930000      -0.06990000
C        0.68950000      -0.55610000      -1.35090000
C        0.35210000      -2.05170000      -1.46510000
C        0.21470000       0.19200000      -2.60560000
O        2.10390000      -0.38360000      -1.12600000
C        2.98340000      -0.73760000      -2.14610000
C        3.49270000       0.31150000      -3.10460000
C        4.38010000      -0.22260000      -1.99850000
H        1.41420000       1.66430000       0.23180000
H       -0.10980000       2.14650000      -0.53040000
H       -0.07100000       1.77140000       1.19190000
H        0.40190000      -0.59780000       0.76920000
H       -1.04010000      -0.15240000      -0.13390000
H       -0.73240000      -2.19650000      -1.49370000
H        0.76360000      -2.49490000      -2.37670000
H        0.75110000      -2.59690000      -0.60470000
H        0.49660000       1.24680000      -2.57130000
H        0.64290000      -0.24230000      -3.51270000
H       -0.87540000       0.13050000      -2.68660000
H        2.86560000      -1.74940000      -2.53000000
H        3.70090000       0.02610000      -4.13050000
H        3.10840000       1.31710000      -2.98050000
H        4.56100000       0.43160000      -1.15320000
H        5.20600000      -0.87730000      -2.25290000
