17
Properties=species:S:1:pos:R:3 gdb_91603=T pbc="F F F"
C       -0.22990000       1.55550000      -0.03220000
C        0.01970000       0.05810000       0.01290000
O        0.86670000      -0.36900000      -1.08010000
C        1.88400000      -1.16410000      -0.47920000
C        2.94510000      -0.24160000       0.14310000
C        2.12570000       0.28040000       1.33780000
O        2.42850000       1.10750000       2.15250000
C        0.80620000      -0.50600000       1.22380000
O        1.27280000      -1.74580000       0.66600000
H        0.69610000       2.12720000       0.06950000
H       -0.69730000       1.82430000      -0.98310000
H       -0.90660000       1.85050000       0.77640000
H       -0.93050000      -0.48650000      -0.05920000
H        2.22160000      -1.93300000      -1.17260000
H        3.81710000      -0.80600000       0.48860000
H        3.27650000       0.57270000      -0.50370000
H        0.25200000      -0.65520000       2.14700000
