15
Properties=species:S:1:pos:R:3 gdb_97492=T pbc="F F F"
O        0.20310000       1.11530000      -0.82040000
C        0.07090000       0.06490000       0.12490000
C       -1.27770000      -0.49110000       0.19690000
C       -2.41390000      -0.90640000       0.25870000
C       -3.68430000      -1.38400000       0.32670000
C       -4.81940000      -1.80050000       0.38980000
C       -6.15930000      -2.35390000       0.44760000
C       -6.23570000      -3.77640000      -0.12400000
O       -6.93730000      -4.63320000       0.33660000
H       -0.46530000       1.77790000      -0.61590000
H        0.77750000      -0.71150000      -0.19000000
H        0.38140000       0.38440000       1.13300000
H       -6.55930000      -2.37330000       1.46700000
H       -6.84650000      -1.73750000      -0.15330000
H       -5.59670000      -3.94690000      -1.01640000
