16
Properties=species:S:1:pos:R:3 gdb_125277=T pbc="F F F"
C       -0.02400000       1.49160000       0.08280000
C       -0.00180000       0.00600000      -0.04960000
C       -0.04760000      -0.79310000      -1.16420000
C        0.00320000      -2.15780000      -0.71650000
C        0.07840000      -2.10280000       0.67210000
N        0.12970000      -3.36460000       1.15510000
N        0.09060000      -4.27150000       0.12580000
C        0.01530000      -3.55060000      -0.98830000
N        0.07640000      -0.80610000       1.09650000
H        0.87820000       1.87820000       0.57450000
H       -0.08200000       1.94900000      -0.90720000
H       -0.88720000       1.84410000       0.66230000
H       -0.11040000      -0.42820000      -2.17790000
H        0.18740000      -3.70330000       2.09790000
H       -0.02690000      -4.06440000      -1.93760000
H        0.12370000      -0.46780000       2.04070000
