15
Properties=species:S:1:pos:R:3 gdb_28811=T pbc="F F F"
C        0.07580000       1.44690000       0.22890000
C       -0.04260000      -0.02080000      -0.07330000
C       -1.26010000      -0.63680000      -0.17240000
C       -1.46050000      -2.03740000      -0.40930000
N       -0.66870000      -3.01960000      -0.12570000
C        0.56340000      -2.83910000       0.47580000
O        0.95650000      -3.44900000       1.44220000
C        1.43730000      -1.85780000      -0.25670000
N        1.15770000      -0.61800000      -0.39180000
H        0.54530000       1.97300000      -0.60800000
H       -0.89670000       1.89520000       0.43990000
H        0.72540000       1.59390000       1.09920000
H       -2.14910000      -0.01270000      -0.16300000
H       -2.41110000      -2.31740000      -0.86910000
H        2.38660000      -2.22270000      -0.65240000
