18
Properties=species:S:1:pos:R:3 gdb_55217=T pbc="F F F"
C        0.61880000       0.07430000       0.71760000
C       -0.27340000       0.14620000      -0.50120000
O        0.05000000       0.70260000      -1.52430000
C       -1.67420000      -0.48730000      -0.38820000
C       -2.14430000      -1.17630000      -1.67850000
C       -1.73330000      -2.63420000      -1.42950000
C       -1.75060000      -2.75340000       0.07880000
N       -1.78960000      -3.82260000       0.74520000
O       -1.71350000      -1.49590000       0.63530000
H        0.91310000      -0.96370000       0.90470000
H        1.50570000       0.68740000       0.55560000
H        0.08030000       0.40440000       1.61180000
H       -2.35070000       0.31690000      -0.07400000
H       -3.22950000      -1.09000000      -1.77520000
H       -1.67780000      -0.71910000      -2.55080000
H       -2.38720000      -3.37660000      -1.88640000
H       -0.71540000      -2.82760000      -1.78750000
H       -1.77860000      -3.62500000       1.74740000
