16
Properties=species:S:1:pos:R:3 gdb_69288=T pbc="F F F"
C        0.05840000       1.50800000      -0.03070000
C       -0.06680000       0.01810000       0.12190000
C       -1.36950000      -0.70100000      -0.24270000
C       -1.34980000      -1.94360000       0.61160000
C       -0.27250000      -1.98490000       1.41400000
C        0.03710000      -2.99680000       2.35990000
N        0.31180000      -3.79910000       3.14920000
C        0.60970000      -0.79700000       1.15020000
O        1.09320000      -0.76140000      -0.20480000
H        1.03720000       1.84650000       0.31680000
H       -0.04810000       1.79800000      -1.08170000
H       -0.71790000       2.02580000       0.54180000
H       -2.25000000      -0.08300000      -0.02410000
H       -1.40840000      -0.94100000      -1.31210000
H       -2.11070000      -2.71270000       0.55810000
H        1.28400000      -0.40990000       1.90740000
