18
Properties=species:S:1:pos:R:3 gdb_13015=T pbc="F F F"
C       -0.33890000       1.43820000      -0.02120000
C        0.06090000      -0.01570000       0.00680000
C       -0.64300000      -1.00140000       0.94030000
C        0.81730000      -0.67360000       1.12080000
O        1.77070000      -1.58120000       0.62580000
C        1.45070000      -1.84720000      -0.73500000
C        0.62910000      -0.64120000      -1.26260000
O       -0.31420000      -0.99370000      -2.25780000
H        0.49910000       2.07180000      -0.33420000
H       -1.16180000       1.60260000      -0.72570000
H       -0.66930000       1.78150000       0.96410000
H       -1.34350000      -0.57840000       1.65270000
H       -0.91470000      -1.99350000       0.59160000
H        1.16940000      -0.15400000       2.00460000
H        2.38430000      -2.00720000      -1.28030000
H        0.84480000      -2.76140000      -0.83140000
H        1.28750000       0.08750000      -1.74850000
H       -1.01800000      -1.49180000      -1.82650000
