17
Properties=species:S:1:pos:R:3 gdb_34748=T pbc="F F F"
N       -0.18550000      -1.20560000      -0.20470000
C       -0.09670000      -0.05950000      -0.07910000
C       -0.00610000       1.39300000       0.06840000
C       -0.25850000       2.03980000       1.42600000
C        0.97770000       1.90350000       2.31180000
C        1.99190000       0.80120000       2.01890000
C        2.40330000       1.13270000       0.55320000
N        1.36780000       2.04480000       0.01410000
C        0.96700000       2.88900000       1.18490000
H       -0.62730000       1.84540000      -0.71120000
H       -1.22820000       2.31980000       1.81810000
H        0.84170000       2.26650000       3.32430000
H        2.84200000       0.86050000       2.70500000
H        1.56340000      -0.20010000       2.11210000
H        3.35230000       1.67690000       0.52980000
H        2.49980000       0.25180000      -0.08500000
H        1.13630000       3.95670000       1.20870000
