18
Properties=species:S:1:pos:R:3 gdb_96929=T pbc="F F F"
C        0.05300000       1.42020000       0.08530000
N        0.15150000      -0.02990000      -0.00300000
C        0.55530000      -0.68070000       0.98360000
O        0.99930000      -0.24200000       2.24500000
C        1.47730000      -1.57760000       2.55220000
C        0.30980000      -2.51240000       2.60280000
N       -1.02640000      -2.19330000       3.02680000
C        0.87690000      -2.12260000       1.24130000
N        1.33080000      -3.09830000       0.32220000
H        0.57680000       1.86550000      -0.76720000
H       -0.99920000       1.71460000       0.00130000
H        0.46230000       1.83930000       1.01180000
H        2.46240000      -1.66340000       2.99150000
H        0.59780000      -3.53430000       2.83980000
H       -1.11070000      -2.36150000       4.02580000
H       -1.19570000      -1.20000000       2.89280000
H        0.54730000      -3.59470000      -0.09070000
H        1.84730000      -2.66430000      -0.43660000
