19
Properties=species:S:1:pos:R:3 gdb_112031=T pbc="F F F"
O        0.01830000       1.38030000      -0.11790000
C        0.04510000      -0.04160000      -0.06720000
C       -1.40630000      -0.51730000       0.00650000
C       -2.22300000      -0.19320000      -1.22770000
C       -2.87910000      -1.24860000      -1.71100000
C       -2.61320000      -2.50030000      -0.92050000
C       -1.48100000      -3.40490000      -1.46510000
O       -0.51620000      -2.78660000      -0.58740000
C       -1.54820000      -2.04850000       0.11460000
H        0.91550000       1.68950000      -0.27150000
H        0.52580000      -0.47130000      -0.95470000
H        0.59750000      -0.39800000       0.81660000
H       -1.85110000      -0.03600000       0.88960000
H       -2.24410000       0.80770000      -1.64210000
H       -3.52230000      -1.23860000      -2.58470000
H       -3.51080000      -3.01590000      -0.57070000
H       -1.60170000      -4.47330000      -1.24140000
H       -1.21810000      -3.28250000      -2.52210000
H       -1.64710000      -2.40650000       1.14520000
