19
Properties=species:S:1:pos:R:3 gdb_64104=T pbc="F F F"
C       -0.23790000       1.57660000      -0.01800000
C       -0.03050000       0.06090000      -0.00600000
O       -1.27670000      -0.62560000       0.05580000
C        0.75640000      -0.42400000      -1.23930000
N        2.13690000       0.02130000      -1.16550000
C        2.87390000       0.05220000       0.00220000
O        4.08630000       0.17550000       0.00870000
N        2.12540000       0.01370000       1.16010000
C        0.73600000      -0.40280000       1.24030000
H        0.71650000       2.10690000      -0.01230000
H       -0.78530000       1.88150000      -0.91820000
H       -0.81720000       1.88300000       0.85770000
H       -1.87250000      -0.22050000      -0.58290000
H        0.66520000      -1.51940000      -1.28240000
H        0.30220000      -0.02100000      -2.15240000
H        2.71610000      -0.05910000      -1.98590000
H        2.69500000      -0.04920000       1.98840000
H        0.27950000       0.03310000       2.13440000
H        0.62630000      -1.49460000       1.31520000
