21
Properties=species:S:1:pos:R:3 gdb_124447=T pbc="F F F"
C        0.05950000       1.52720000       0.06100000
C        0.00320000      -0.01490000      -0.00680000
C        0.67050000      -0.60300000       1.25590000
C       -1.46510000      -0.46870000      -0.06510000
C        0.75880000      -0.48630000      -1.23360000
N        0.16460000      -1.19600000      -2.19180000
N        1.13120000      -1.42900000      -3.10190000
C        2.32470000      -0.89100000      -2.75640000
C        2.12750000      -0.26740000      -1.54570000
H        1.09130000       1.88930000       0.11070000
H       -0.41130000       1.97530000      -0.81960000
H       -0.46660000       1.89060000       0.95070000
H        0.15070000      -0.26140000       2.15790000
H        0.64190000      -1.69700000       1.24040000
H        1.71810000      -0.29580000       1.33620000
H       -1.96890000      -0.06740000      -0.94820000
H       -1.54130000      -1.55800000      -0.11210000
H       -1.99780000      -0.12130000       0.82660000
H        0.90540000      -1.95750000      -3.92670000
H        3.19690000      -0.99180000      -3.38310000
H        2.86390000       0.26850000      -0.96960000
