18
Properties=species:S:1:pos:R:3 gdb_126688=T pbc="F F F"
C       -0.06760000       1.52060000      -0.04200000
C       -0.00660000      -0.01030000      -0.05640000
N        0.68560000      -0.56360000      -1.21900000
C        2.13620000      -0.66970000      -1.19330000
C        0.03440000      -0.74400000      -2.38330000
N        0.53040000      -1.14310000      -3.53520000
C       -0.59270000      -1.17070000      -4.31090000
N       -1.71180000      -0.82000000      -3.74200000
O       -1.28910000      -0.51850000      -2.41270000
H        0.93350000       1.96220000      -0.05920000
H       -0.62530000       1.89130000      -0.90610000
H       -0.57310000       1.86700000       0.86470000
H        0.51820000      -0.37950000       0.83110000
H       -1.01690000      -0.42550000      -0.03140000
H        2.44720000      -1.22440000      -0.30210000
H        2.46650000      -1.20240000      -2.08410000
H        2.61740000       0.31670000      -1.17580000
H       -0.57890000      -1.46490000      -5.35150000
