19
Properties=species:S:1:pos:R:3 gdb_72145=T pbc="F F F"
C        0.04100000       1.48200000      -0.09640000
C        0.01250000      -0.01710000      -0.00590000
O        0.44720000      -0.65490000      -1.19460000
C        0.22340000      -1.98290000      -0.76260000
C        1.11190000      -2.08740000       0.49330000
C        0.67700000      -0.78870000       1.21130000
C       -0.73640000      -0.96130000       1.82450000
C       -1.29720000      -0.79710000       0.39680000
O       -1.14430000      -2.00510000      -0.35930000
H        1.06260000       1.83900000      -0.25940000
H       -0.58190000       1.82910000      -0.92630000
H       -0.33410000       1.93120000       0.82790000
H        0.38000000      -2.69580000      -1.57100000
H        0.91790000      -2.99140000       1.07520000
H        2.16660000      -2.06420000       0.20580000
H        1.45870000      -0.30320000       1.79590000
H       -0.96130000      -1.90330000       2.33010000
H       -1.01800000      -0.12300000       2.46920000
H       -2.29590000      -0.39170000       0.22530000
