25
Properties=species:S:1:pos:R:3 gdb_118980=T pbc="F F F"
C       -0.17300000       1.56060000       0.32940000
C       -0.08060000       0.05170000       0.08070000
C        0.73440000      -0.66970000       1.16160000
C        0.88040000      -2.20900000       1.01080000
C        1.70240000      -2.55990000      -0.24050000
C        1.52280000      -2.80660000       2.30380000
C        0.35230000      -3.32840000       3.17450000
C       -0.76680000      -3.47740000       2.17160000
C       -0.48130000      -2.88720000       1.01340000
H        0.82120000       2.02140000       0.34290000
H       -0.76020000       2.05920000      -0.44830000
H       -0.64740000       1.77460000       1.29370000
H       -1.09210000      -0.37070000       0.04060000
H        0.36450000      -0.12250000      -0.90640000
H        1.74270000      -0.23270000       1.19950000
H        0.27550000      -0.46360000       2.13790000
H        2.70220000      -2.11280000      -0.19060000
H        1.82210000      -3.64410000      -0.33300000
H        1.22470000      -2.20230000      -1.15820000
H        2.16850000      -3.64710000       2.02840000
H        2.14970000      -2.07770000       2.82580000
H        0.59760000      -4.26820000       3.68240000
H        0.07430000      -2.61990000       3.96740000
H       -1.69720000      -3.98590000       2.40240000
H       -1.14280000      -2.85110000       0.15390000
