18
Properties=species:S:1:pos:R:3 gdb_24615=T pbc="F F F"
C        0.02240000       1.48480000      -0.20710000
O        1.42650000       1.58680000       0.09950000
C        1.47720000       0.20860000       0.51640000
C        0.02430000      -0.04990000       0.03190000
C       -0.97040000      -0.65400000       0.96640000
C       -1.25700000      -0.24980000       2.25670000
N       -2.23050000      -1.07640000       2.75490000
C       -2.57970000      -2.00840000       1.81240000
C       -1.81570000      -1.77110000       0.69460000
H       -0.59840000       2.04450000       0.50560000
H       -0.20430000       1.82640000      -1.22410000
H        2.27400000      -0.34760000       0.00840000
H        1.60750000       0.10950000       1.60260000
H        0.01400000      -0.59750000      -0.91320000
H       -0.85130000       0.55100000       2.85460000
H       -2.62780000      -1.00770000       3.67510000
H       -3.33340000      -2.75170000       2.01630000
H       -1.84940000      -2.33200000      -0.22760000
