21
Properties=species:S:1:pos:R:3 gdb_73479=T pbc="F F F"
C        0.04760000       1.51450000      -0.02530000
C        0.00820000      -0.00280000      -0.03090000
C        0.72130000      -0.65980000      -1.23080000
C        0.00880000      -2.03090000      -1.38540000
C       -0.72510000      -2.13880000      -0.05150000
O        0.30710000      -2.11680000       0.97600000
C        0.27660000      -0.72790000       1.34090000
C       -1.21200000      -0.52520000       1.70440000
C       -1.36700000      -0.74850000       0.18140000
H        1.08480000       1.87000000      -0.01910000
H       -0.42950000       1.91910000      -0.92520000
H       -0.45170000       1.95420000       0.84250000
H        0.62360000      -0.04130000      -2.12860000
H        1.79180000      -0.77680000      -1.03530000
H       -0.70050000      -2.02850000      -2.22160000
H        0.70090000      -2.86400000      -1.52970000
H       -1.36370000      -3.01460000       0.08320000
H        1.11420000      -0.49490000       1.99940000
H       -1.64280000      -1.26120000       2.38670000
H       -1.47230000       0.48630000       2.01670000
H       -2.27160000      -0.50960000      -0.37880000
