23
Properties=species:S:1:pos:R:3 gdb_109395=T pbc="F F F"
O        0.06070000       1.44440000       0.22080000
C        0.02740000       0.03770000       0.09000000
C       -1.38730000      -0.47270000      -0.01610000
C       -2.43400000       0.35290000       0.01260000
C       -3.88500000      -0.05640000      -0.08130000
C       -4.26220000      -0.85550000      -1.34370000
C       -3.75360000      -2.30290000      -1.36570000
C       -2.22930000      -2.47870000      -1.40300000
C       -1.48880000      -1.97940000      -0.14780000
H        0.97980000       1.71580000       0.29010000
H        0.58960000      -0.29270000      -0.80320000
H        0.51440000      -0.45470000       0.95200000
H       -2.22960000       1.41350000       0.11640000
H       -4.16850000      -0.64920000       0.80240000
H       -4.50470000       0.84560000      -0.04180000
H       -5.35620000      -0.87720000      -1.42500000
H       -3.89510000      -0.32110000      -2.22920000
H       -4.14780000      -2.83030000      -0.48450000
H       -4.18320000      -2.81190000      -2.23750000
H       -2.01150000      -3.54670000      -1.52860000
H       -1.81960000      -1.97240000      -2.28650000
H       -0.47720000      -2.40440000      -0.14810000
H       -1.98240000      -2.39610000       0.74280000
