17
Properties=species:S:1:pos:R:3 gdb_77613=T pbc="F F F"
C        0.01860000       1.58570000       0.02830000
C        0.01830000       0.08550000       0.05280000
C        0.66230000      -0.78920000      -1.02400000
O        1.14290000      -1.75170000      -0.04170000
C        0.63850000      -0.94170000       1.01640000
C        1.35130000      -0.78580000       2.23710000
N        1.88310000      -0.63960000       3.25610000
C       -0.88320000      -0.78320000       0.89040000
N       -1.66590000      -0.16590000       1.91700000
H        1.01570000       1.97410000      -0.20080000
H       -0.67380000       1.95080000      -0.73900000
H       -0.29710000       2.02030000       0.97960000
H        0.00040000      -1.25120000      -1.76440000
H        1.50620000      -0.30210000      -1.52570000
H       -1.38350000      -1.62440000       0.41270000
H       -1.86810000      -0.83700000       2.65230000
H       -1.17540000       0.60530000       2.35740000
