20
Properties=species:S:1:pos:R:3 gdb_13021=T pbc="F F F"
C       -0.03490000       1.53540000       0.01250000
C        0.00760000       0.00600000      -0.00290000
C        0.80040000      -0.57870000      -1.20020000
C        1.34930000      -1.94340000      -0.72470000
C        1.49260000      -1.76120000       0.77210000
O        2.12520000      -0.52400000       1.14280000
C        0.68640000      -0.61670000       1.21800000
C        0.08710000      -0.47820000       2.59070000
H        0.97650000       1.94190000       0.11620000
H       -0.46300000       1.92520000      -0.91670000
H       -0.64110000       1.91750000       0.84050000
H       -1.02180000      -0.38060000      -0.02560000
H        0.18670000      -0.66120000      -2.10100000
H        1.63500000       0.08780000      -1.43300000
H        0.63610000      -2.75560000      -0.91500000
H        2.29030000      -2.21370000      -1.21420000
H        1.71570000      -2.60640000       1.42030000
H        0.05460000       0.57190000       2.90080000
H       -0.93830000      -0.86340000       2.60820000
H        0.67990000      -1.02760000       3.32630000
