16
Properties=species:S:1:pos:R:3 gdb_1865=T pbc="F F F"
C        0.42950000       1.44320000       0.02810000
C       -0.10330000       0.01510000      -0.00850000
C        0.37590000      -0.81490000      -1.21650000
C        1.64120000      -1.49320000      -0.67470000
C        1.37170000      -1.58370000       0.81210000
N        1.96970000      -2.33980000       1.62760000
O        0.37230000      -0.71380000       1.14730000
H        1.51830000       1.46330000      -0.08570000
H       -0.01160000       2.03320000      -0.78180000
H        0.17720000       1.91950000       0.97920000
H       -1.19460000       0.02740000       0.06880000
H       -0.37640000      -1.56520000      -1.47670000
H        0.55240000      -0.19530000      -2.09830000
H        1.84440000      -2.47780000      -1.09580000
H        2.53270000      -0.87750000      -0.83710000
H        1.61100000      -2.19770000       2.57360000
