22
Properties=species:S:1:pos:R:3 gdb_121633=T pbc="F F F"
C       -0.01790000       1.51230000      -0.03400000
C        0.01660000      -0.00620000      -0.02400000
O        0.67610000      -0.44370000      -1.19510000
C        0.76100000      -1.83310000      -1.28440000
C        1.49150000      -2.19460000      -2.58800000
O        1.88330000      -1.33220000      -3.34790000
N        1.66590000      -3.53620000      -2.83480000
C        2.37480000      -3.94100000      -4.03660000
C        1.25750000      -4.61580000      -1.95970000
H        0.99750000       1.91710000      -0.05860000
H       -0.55170000       1.87610000      -0.91620000
H       -0.52310000       1.88800000       0.86080000
H        0.54370000      -0.37720000       0.87230000
H       -1.00700000      -0.41810000       0.01420000
H        1.30640000      -2.25440000      -0.42100000
H       -0.24350000      -2.29320000      -1.27880000
H        3.29470000      -4.48350000      -3.78180000
H        1.74790000      -4.60090000      -4.64950000
H        2.62630000      -3.04570000      -4.60230000
H        0.66760000      -4.25380000      -1.12010000
H        0.64550000      -5.34200000      -2.51060000
H        2.12860000      -5.15280000      -1.55830000
