19
Properties=species:S:1:pos:R:3 gdb_38850=T pbc="F F F"
C       -0.02380000       1.52520000      -0.08310000
O        1.33420000       1.98460000       0.01470000
C        2.16640000       0.84010000       0.22960000
C        1.44210000      -0.29670000      -0.49400000
C        0.01460000      -0.01690000       0.01660000
C       -0.12520000      -0.50530000       1.47210000
C        1.05590000      -0.09000000       2.33990000
O        2.29160000      -0.79660000       2.14400000
C        2.22130000       0.57050000       1.73020000
H       -0.62640000       1.98010000       0.71320000
H       -0.43060000       1.85600000      -1.04700000
H        3.15610000       1.07390000      -0.17150000
H        1.51850000      -0.15830000      -1.57600000
H        1.81590000      -1.28430000      -0.22340000
H       -0.76110000      -0.47040000      -0.60550000
H       -1.04330000      -0.09890000       1.91280000
H       -0.21870000      -1.59770000       1.50160000
H        0.83680000       0.10480000       3.38930000
H        2.81710000       1.26400000       2.32250000
