23
Properties=species:S:1:pos:R:3 gdb_118897=T pbc="F F F"
C        0.05030000       1.57170000       0.02140000
C        0.01920000       0.03290000      -0.03390000
C       -1.42160000      -0.49990000      -0.12630000
C       -2.22440000      -0.03970000      -1.33890000
O       -3.47280000      -0.71970000      -1.30060000
C        0.93170000      -0.45810000      -1.20640000
C        2.24860000      -0.77100000      -0.54030000
C        2.14000000      -0.80500000       0.78620000
C        0.73180000      -0.52180000       1.24310000
H        1.07550000       1.92620000       0.17120000
H       -0.32170000       2.02260000      -0.90410000
H       -0.56070000       1.94850000       0.84940000
H       -1.39910000      -1.59660000      -0.14360000
H       -1.97700000      -0.21670000       0.77690000
H       -2.37220000       1.05040000      -1.31210000
H       -1.67730000      -0.27210000      -2.26680000
H       -4.00340000      -0.41290000      -2.04140000
H        0.52180000      -1.35840000      -1.68720000
H        1.02450000       0.29420000      -1.99950000
H        3.15430000      -0.97240000      -1.10210000
H        2.94380000      -1.03780000       1.47620000
H        0.68500000       0.19180000       2.07520000
H        0.24970000      -1.44170000       1.60370000
