16
Properties=species:S:1:pos:R:3 gdb_29957=T pbc="F F F"
C        0.01420000       1.47390000       0.01760000
N       -0.00940000       0.02390000      -0.00910000
C       -0.05670000      -0.77380000      -1.15590000
C       -0.01840000      -2.07990000      -0.77980000
C        0.06100000      -2.11980000       0.65570000
C        0.12100000      -3.27210000       1.51650000
O        0.11640000      -4.43490000       1.16540000
C        0.06640000      -0.78810000       1.07210000
O        0.13310000      -0.21750000       2.29160000
H        1.02100000       1.86100000      -0.17350000
H       -0.66520000       1.86290000      -0.74430000
H       -0.31490000       1.82090000       0.99740000
H       -0.11850000      -0.30810000      -2.12600000
H       -0.04840000      -2.94490000      -1.42220000
H        0.17750000      -3.02560000       2.61120000
H        0.14320000      -0.91230000       2.95930000
