15
Properties=species:S:1:pos:R:3 gdb_69646=T pbc="F F F"
O       -0.12440000       1.40890000       0.13530000
C       -0.07970000       0.03750000       0.02580000
C       -0.29490000      -0.73990000      -1.24400000
C       -1.25210000      -0.91060000      -0.08040000
C       -0.62620000      -1.79600000       1.04500000
O        0.70610000      -2.18720000       0.67910000
C        0.52550000      -0.86860000       1.15460000
C       -1.33020000      -2.51550000       2.12730000
O       -0.80510000      -3.27330000       2.90320000
H        0.65520000       1.77640000      -0.29740000
H       -0.70550000      -0.13440000      -2.04600000
H        0.36650000      -1.54220000      -1.54630000
H       -2.30740000      -0.68100000      -0.13950000
H        1.07200000      -0.54810000       2.03490000
H       -2.41560000      -2.27470000       2.18230000
