20
Properties=species:S:1:pos:R:3 gdb_76305=T pbc="F F F"
C        0.06930000       1.56520000       0.06830000
C        0.03010000       0.05720000      -0.08450000
C        0.72260000      -0.63310000      -1.31580000
N        1.80650000       0.02760000      -2.00240000
C        1.20510000      -1.68720000      -0.26620000
C        2.58000000      -2.18120000      -0.33070000
N        3.66710000      -2.57170000      -0.36310000
N        0.93640000      -0.70810000       0.79900000
C        0.45800000      -1.19450000       2.07540000
H        1.07850000       1.95170000      -0.09750000
H       -0.61090000       2.04500000      -0.64390000
H       -0.24390000       1.86110000       1.07490000
H       -1.01150000      -0.30350000      -0.00360000
H        0.02960000      -1.03050000      -2.05930000
H        1.46180000       0.78980000      -2.57620000
H        2.47900000       0.41370000      -1.34700000
H        0.52420000      -2.55510000      -0.24460000
H        1.23760000      -1.79010000       2.56080000
H        0.22850000      -0.34780000       2.72930000
H       -0.45080000      -1.81850000       1.98480000
