18
Properties=species:S:1:pos:R:3 gdb_28950=T pbc="F F F"
C       -0.08770000       1.48010000       0.19200000
C       -0.02400000      -0.00060000       0.00040000
C       -0.01290000      -0.74940000      -1.15540000
C        0.07550000      -2.12170000      -0.79260000
C        0.11730000      -2.17530000       0.57760000
N        0.06450000      -0.88490000       1.06240000
C       -0.00310000      -0.52760000       2.45780000
C       -1.42970000      -0.23750000       2.92620000
O       -1.69360000       0.49020000       3.84450000
H        0.80450000       1.87760000       0.69270000
H       -0.15820000       1.96680000      -0.78320000
H       -0.95640000       1.79980000       0.78090000
H       -0.05610000      -0.34570000      -2.15600000
H        0.11410000      -2.96860000      -1.46010000
H        0.18870000      -3.01020000       1.25710000
H        0.37630000      -1.36660000       3.05340000
H        0.62390000       0.33920000       2.68470000
H       -2.21320000      -0.77190000       2.34280000
