19
Properties=species:S:1:pos:R:3 gdb_87060=T pbc="F F F"
C       -0.15890000       1.44900000      -0.02790000
N        0.04340000       0.00700000       0.06060000
C        1.36740000      -0.50950000      -0.22450000
C        0.81970000      -0.55180000       1.17840000
C        1.43210000       0.36370000       2.12140000
N        1.89380000       1.08430000       2.90030000
C        0.29330000      -1.83230000       1.76620000
C        1.01660000      -2.54900000       2.87880000
C       -0.30910000      -1.88380000       3.14780000
H        0.71230000       2.04190000       0.28760000
H       -0.39250000       1.69700000      -1.06720000
H       -1.01280000       1.73000000       0.59460000
H        1.41290000      -1.43550000      -0.79200000
H        2.17030000       0.19880000      -0.42330000
H       -0.17870000      -2.44700000       1.00730000
H        1.06130000      -3.63130000       2.83680000
H        1.90230000      -2.07960000       3.29320000
H       -0.29930000      -0.97550000       3.74050000
H       -1.18620000      -2.50420000       3.29130000
