16
Properties=species:S:1:pos:R:3 gdb_133812=T pbc="F F F"
C       -4.50270000      -0.24420000       0.14170000
C       -3.50500000      -0.48770000      -0.99600000
C       -2.10490000      -0.73170000       0.57030000
C       -1.15510000      -0.37070000      -0.53900000
C       -1.17570000       0.96880000      -0.73770000
C       -2.30020000       1.61920000       0.10120000
C       -3.14030000       0.33250000       0.28140000
C       -2.29310000      -1.39470000      -0.76270000
H       -4.82570000      -1.02360000       0.82830000
H       -5.30870000       0.41330000      -0.17720000
H       -3.72690000      -0.01880000      -1.95010000
H       -1.77220000      -1.15380000       1.51130000
H       -0.74860000       1.49110000      -1.59090000
H       -2.77570000       2.41680000      -0.48180000
H       -2.00250000       2.05280000       1.06540000
H       -2.16060000      -2.42930000      -1.06000000
