23
Properties=species:S:1:pos:R:3 gdb_123098=T pbc="F F F"
C        0.10210000       1.47310000       0.01880000
C       -0.00860000      -0.05340000       0.03180000
C       -1.45370000      -0.53210000       0.01040000
O       -1.46750000      -1.94420000       0.02400000
C       -2.76950000      -2.48780000       0.00600000
C       -2.64180000      -4.00360000       0.02280000
C       -3.98250000      -4.72000000       0.00610000
C       -3.93450000      -6.23770000       0.02180000
O       -5.03020000      -4.11350000      -0.01840000
H        1.14840000       1.79140000       0.03440000
H       -0.36100000       1.89980000      -0.87780000
H       -0.39270000       1.91710000       0.88960000
H        0.51210000      -0.48010000      -0.83330000
H        0.48050000      -0.46280000       0.92320000
H       -2.00230000      -0.13570000       0.88300000
H       -1.97040000      -0.15310000      -0.88890000
H       -3.35220000      -2.14570000       0.87530000
H       -3.32060000      -2.16260000      -0.88990000
H       -2.04630000      -4.34070000      -0.83580000
H       -2.07700000      -4.32380000       0.90820000
H       -3.40790000      -6.59370000       0.91440000
H       -4.94790000      -6.64030000       0.00770000
H       -3.37660000      -6.61090000      -0.84440000
