21
Properties=species:S:1:pos:R:3 gdb_96502=T pbc="F F F"
C       -0.01690000       1.64430000       0.00050000
C       -0.00440000       0.11300000       0.03370000
C        0.60760000      -0.45650000      -1.27410000
C        0.95290000      -1.96280000      -1.29990000
C        0.16460000      -2.87610000      -0.35200000
O        0.68630000      -2.86180000       0.96920000
C        0.28850000      -1.78860000       1.79780000
C        0.72000000      -0.40560000       1.27660000
O        1.57300000       0.23380000       1.84790000
H        1.00440000       2.03110000       0.03620000
H       -0.49870000       2.00570000      -0.91320000
H       -0.55640000       2.05650000       0.85800000
H       -1.03650000      -0.25520000       0.09820000
H       -0.10360000      -0.22910000      -2.07600000
H        1.51360000       0.11640000      -1.50130000
H        0.82920000      -2.33320000      -2.32400000
H        2.00850000      -2.11080000      -1.04580000
H       -0.91190000      -2.64060000      -0.34910000
H        0.27200000      -3.91340000      -0.68420000
H       -0.80710000      -1.79050000       1.93820000
H        0.77290000      -1.95000000       2.76290000
