21
Properties=species:S:1:pos:R:3 gdb_89427=T pbc="F F F"
C       -0.20340000       1.52100000      -0.00840000
C        0.02320000       0.00070000      -0.01010000
O        0.59390000      -0.41110000      -1.25530000
C        1.95290000      -0.74680000      -1.36290000
C        2.14970000      -1.53000000      -2.63780000
C        3.04690000       0.17480000      -0.89550000
C        2.72560000      -1.11800000      -0.12480000
C        1.99280000      -0.99990000       1.15310000
C        0.76780000      -0.47950000       1.20380000
H        0.74410000       2.06600000       0.01160000
H       -0.75350000       1.81060000      -0.90830000
H       -0.78760000       1.82050000       0.86840000
H       -0.97070000      -0.47150000      -0.00060000
H        1.83670000      -0.93450000      -3.50150000
H        3.20040000      -1.80230000      -2.76900000
H        1.54980000      -2.44520000      -2.62030000
H        3.96310000       0.21300000      -1.47640000
H        2.78370000       1.10160000      -0.40010000
H        3.44740000      -1.92590000      -0.19700000
H        2.48460000      -1.34330000       2.05890000
H        0.24040000      -0.37920000       2.14810000
