17
Properties=species:S:1:pos:R:3 gdb_54251=T pbc="F F F"
C        0.02430000       1.48870000      -0.00750000
C       -0.02200000      -0.04620000      -0.00420000
C        0.79580000      -0.67400000      -1.16650000
O        1.77700000      -1.50960000      -0.49760000
C        1.55020000      -1.34970000       0.81880000
N        0.61840000      -0.58500000       1.21740000
C       -1.50320000      -0.47540000      -0.08740000
N       -2.07490000      -0.74420000       1.11060000
O       -2.08770000      -0.50760000      -1.15490000
H        1.06240000       1.83330000       0.01440000
H       -0.46130000       1.87480000      -0.90830000
H       -0.49110000       1.88940000       0.86910000
H        0.18560000      -1.29290000      -1.82530000
H        1.33630000       0.06850000      -1.75880000
H        2.21320000      -1.91750000       1.46280000
H       -1.48820000      -0.82620000       1.92580000
H       -3.03070000      -1.05910000       1.13180000
