19
Properties=species:S:1:pos:R:3 gdb_68751=T pbc="F F F"
C       -0.02390000       1.51820000      -0.08190000
C       -0.00460000       0.01440000       0.02910000
C        1.23880000      -0.78440000      -0.23170000
C        0.63620000      -0.75770000       1.16840000
C        1.38090000      -0.19710000       2.35230000
C       -0.26260000      -1.93340000       1.41360000
O       -0.18390000      -2.75360000       2.28270000
O       -1.25110000      -1.96530000       0.46880000
C       -1.29000000      -0.74220000      -0.28130000
H        0.93190000       1.95160000       0.22520000
H       -0.20850000       1.83210000      -1.11570000
H       -0.80920000       1.95480000       0.54520000
H        1.18010000      -1.69790000      -0.81610000
H        2.16600000      -0.23260000      -0.34900000
H        2.04870000       0.61580000       2.05480000
H        0.69250000       0.18620000       3.11230000
H        1.98210000      -0.98290000       2.81870000
H       -2.17270000      -0.17050000       0.03140000
H       -1.39680000      -0.99830000      -1.34050000
