17
Properties=species:S:1:pos:R:3 gdb_91285=T pbc="F F F"
O       -0.43140000       1.24060000       0.91090000
C       -0.07880000       0.11440000       0.14020000
C        0.55360000      -1.04400000       0.96910000
C       -0.84110000      -1.72050000       1.07500000
C       -1.73600000      -1.30610000       2.24810000
C       -2.84090000      -0.43460000       1.63970000
O       -3.81240000       0.00190000       2.17830000
O       -2.58330000      -0.21700000       0.31290000
C       -1.34520000      -0.78340000      -0.05790000
H        0.37980000       1.66060000       1.21450000
H        0.44900000       0.40130000      -0.77830000
H        1.26060000      -1.63950000       0.38520000
H        1.03130000      -0.74580000       1.90670000
H       -0.87500000      -2.79360000       0.88460000
H       -2.19980000      -2.14570000       2.77000000
H       -1.21460000      -0.70460000       2.99750000
H       -1.43480000      -1.20850000      -1.05820000
