17
Properties=species:S:1:pos:R:3 gdb_11818=T pbc="F F F"
C       -0.02610000       1.41400000      -0.08120000
N       -0.01920000      -0.02310000      -0.06510000
C       -1.09810000      -1.01930000      -0.05040000
C        0.01410000      -2.08340000      -0.04580000
C        0.13520000      -3.36850000       0.71950000
C        0.12730000      -3.38310000      -0.78730000
C        1.01110000      -0.93860000      -0.06220000
O        2.20990000      -0.81540000      -0.07020000
H        1.01450000       1.74770000      -0.09240000
H       -0.53190000       1.80780000      -0.97190000
H       -0.51920000       1.82810000       0.80740000
H       -1.72540000      -0.98260000       0.84850000
H       -1.73390000      -0.99960000      -0.94390000
H        1.07530000      -3.54900000       1.22990000
H       -0.74450000      -3.73270000       1.23960000
H       -0.75800000      -3.75730000      -1.29070000
H        1.06180000      -3.57370000      -1.30420000
