11
Properties=species:S:1:pos:R:3 gdb_3842=T pbc="F F F"
N       -0.10670000       1.33060000       0.00830000
C        0.02570000       0.06470000       0.00110000
N       -1.14420000      -0.71920000       0.00370000
N       -1.21430000      -2.03990000      -0.00250000
C       -0.07560000      -2.67280000      -0.01200000
C        1.16090000      -1.94280000      -0.01540000
N        1.22960000      -0.65110000      -0.00930000
H        0.81640000       1.76040000       0.00530000
H       -2.02700000      -0.22680000       0.01120000
H       -0.11200000      -3.75460000      -0.01730000
H        2.10180000      -2.49380000      -0.02340000
