19
Properties=species:S:1:pos:R:3 gdb_57852=T pbc="F F F"
C       -0.01590000       1.59620000       0.75940000
C       -0.14870000       0.26590000       0.00580000
C        0.82690000      -0.79840000       0.55220000
C       -1.55840000      -0.28310000       0.12600000
O       -2.17240000      -0.32430000       1.16820000
C       -2.24090000      -0.85840000      -1.14070000
O       -3.43580000      -1.49840000      -0.79340000
C       -2.43630000       0.23900000      -2.09840000
C       -2.59630000       1.15050000      -2.86550000
H        1.01590000       1.95650000       0.71260000
H       -0.66550000       2.36180000       0.32550000
H       -0.29440000       1.46860000       1.80860000
H        0.06340000       0.42350000      -1.05720000
H        0.62700000      -0.99080000       1.61040000
H        0.74280000      -1.74660000       0.01140000
H        1.85720000      -0.44520000       0.45260000
H       -1.54650000      -1.59020000      -1.58540000
H       -3.59100000      -1.24280000       0.13230000
H       -2.74850000       1.94460000      -3.55460000
