19
Properties=species:S:1:pos:R:3 gdb_72282=T pbc="F F F"
C       -0.08800000       1.57330000       0.02570000
C       -0.01520000       0.07500000      -0.04330000
C        0.64750000      -0.69480000      -1.18980000
C       -0.35750000      -1.87310000      -0.96460000
O        0.14690000      -3.05170000      -0.34560000
C        1.03720000      -2.77520000       0.70000000
O        0.55280000      -1.85270000       1.65660000
C       -0.24490000      -0.80750000       1.16430000
C       -1.15610000      -0.98930000       0.00190000
H        0.89920000       2.00600000       0.22910000
H       -0.44590000       1.99720000      -0.92010000
H       -0.76440000       1.90820000       0.81890000
H        0.43310000      -0.21590000      -2.15010000
H        1.72140000      -0.89360000      -1.14070000
H       -0.87880000      -2.20670000      -1.86090000
H        1.19850000      -3.71650000       1.23150000
H        1.99780000      -2.41320000       0.30110000
H       -0.65980000      -0.27390000       2.01380000
H       -2.23400000      -0.88530000       0.04230000
