17
Properties=species:S:1:pos:R:3 gdb_125676=T pbc="F F F"
C       -0.00780000       1.47410000       0.02890000
C       -0.00280000      -0.02090000       0.00850000
N       -0.02640000      -0.69830000      -1.13770000
N       -0.01340000      -1.99150000      -0.77290000
C        0.01780000      -2.17990000       0.57230000
C        0.02550000      -0.90960000       1.11620000
N        0.05450000      -0.51980000       2.45680000
C        0.08150000      -1.34460000       3.54640000
N        0.08380000      -2.62000000       3.46060000
H        0.88760000       1.88050000       0.51610000
H       -0.03490000       1.85360000      -0.99450000
H       -0.88060000       1.87390000       0.56060000
H       -0.02720000      -2.69900000      -1.48630000
H        0.03210000      -3.14410000       1.04540000
H        0.05550000       0.46980000       2.63410000
H        0.10070000      -0.77240000       4.48150000
H        0.10600000      -3.03030000       4.39060000
