23
Properties=species:S:1:pos:R:3 gdb_59633=T pbc="F F F"
C       -0.03260000       1.50640000      -0.11600000
C       -0.01070000      -0.01900000       0.04280000
C        0.83690000      -0.43600000       1.25190000
C       -1.44770000      -0.56940000       0.15380000
O       -2.22510000      -0.14460000      -0.97610000
C       -2.80840000      -1.26210000      -1.62910000
C       -2.33430000      -2.47550000      -0.87070000
C       -2.72450000      -3.86270000      -1.26350000
C       -1.57260000      -2.06950000       0.14200000
H        0.97960000       1.89800000      -0.26130000
H       -0.64600000       1.79880000      -0.97070000
H       -0.44920000       1.98500000       0.77900000
H        0.42670000      -0.45850000      -0.86390000
H        0.38800000      -0.08080000       2.18760000
H        0.94860000      -1.52210000       1.32440000
H        1.84070000      -0.00450000       1.18640000
H       -1.89940000      -0.14100000       1.06790000
H       -3.90850000      -1.17710000      -1.61780000
H       -2.50250000      -1.28500000      -2.68790000
H       -3.81490000      -3.98620000      -1.25260000
H       -2.39530000      -4.09410000      -2.28460000
H       -2.29210000      -4.60770000      -0.59080000
H       -1.10220000      -2.70860000       0.87840000
