19
Properties=species:S:1:pos:R:3 gdb_76524=T pbc="F F F"
C       -0.10330000       0.77580000      -2.08930000
C        0.05760000      -0.33900000      -1.07890000
C        1.35030000      -0.62960000      -0.36030000
C        2.62100000       0.16350000      -0.57480000
C        0.18560000      -0.03110000       0.39610000
C        0.04840000       1.27300000       1.17010000
O       -0.69220000       0.55030000       2.21010000
C       -0.58050000      -0.64540000       1.52570000
O       -0.99790000      -1.71290000       1.84500000
H        0.47840000       1.66360000      -1.82740000
H        0.22110000       0.44830000      -3.08270000
H       -1.15240000       1.07980000      -2.16610000
H       -0.55220000      -1.21560000      -1.28420000
H        1.51560000      -1.68040000      -0.13470000
H        2.42630000       1.22580000      -0.74440000
H        3.27850000       0.08380000       0.29710000
H        3.17220000      -0.21500000      -1.44210000
H        0.96530000       1.70410000       1.57940000
H       -0.57570000       2.05050000       0.72270000
