20
Properties=species:S:1:pos:R:3 gdb_108544=T pbc="F F F"
O       -0.07900000       1.42380000       0.25160000
C        0.00080000       0.03520000      -0.05540000
C       -1.40190000      -0.52340000      -0.01280000
C       -2.41620000       0.07410000      -0.98820000
C       -3.64260000      -0.77890000      -0.58440000
N       -3.12680000      -1.65990000       0.49010000
C       -1.70830000      -2.05970000       0.08360000
C       -1.34300000      -2.07680000       1.57920000
C       -2.17230000      -0.80550000       1.32650000
H        0.80710000       1.79370000       0.19970000
H        0.42190000      -0.12450000      -1.06200000
H        0.65730000      -0.48570000       0.65680000
H       -2.55000000       1.14590000      -0.82480000
H       -2.11430000      -0.06970000      -2.03150000
H       -4.47230000      -0.18390000      -0.19130000
H       -4.02960000      -1.39550000      -1.40120000
H       -1.53450000      -2.82640000      -0.67630000
H       -1.83680000      -2.84790000       2.17130000
H       -0.29410000      -1.95580000       1.84960000
H       -2.54950000      -0.07570000       2.04590000
