12
Properties=species:S:1:pos:R:3 gdb_21636=T pbc="F F F"
N       -0.08100000       1.36450000       0.14630000
C        0.00750000      -0.00600000       0.04190000
N       -1.04850000      -0.79920000       0.03070000
N       -0.50480000      -2.04440000      -0.00330000
C       -1.33520000      -3.17920000      -0.02050000
O       -0.93950000      -4.30740000      -0.06070000
N        0.83330000      -2.08450000      -0.02220000
C        1.18480000      -0.81630000       0.00740000
H        0.66300000       1.87840000      -0.30110000
H       -0.99460000       1.73440000      -0.07490000
H       -2.38810000      -2.85690000       0.00740000
H        2.22280000      -0.51990000       0.00750000
