14
Properties=species:S:1:pos:R:3 gdb_19330=T pbc="F F F"
N        0.13580000      -1.11580000       0.01910000
C        0.06220000       0.03940000       0.01460000
C       -0.01340000       1.46190000      -0.00450000
C        0.26850000       2.27230000      -1.25240000
C        1.09650000       2.51240000      -0.03100000
C        0.32730000       3.22720000       1.09210000
C       -1.08700000       3.53140000       0.79130000
N       -0.72190000       2.14800000       1.15810000
H        0.77120000       1.68990000      -2.01770000
H       -0.43520000       2.99390000      -1.64900000
H        2.16320000       2.33990000      -0.00070000
H        0.81960000       3.56260000       1.99810000
H       -1.65580000       4.00660000       1.58520000
H       -1.43580000       3.77800000      -0.20400000
