15
Properties=species:S:1:pos:R:3 gdb_72114=T pbc="F F F"
O        0.20020000       1.39630000      -0.13550000
C        0.09350000       0.02790000      -0.06280000
C        0.84790000      -0.82690000      -1.10280000
C       -0.02250000      -2.07780000      -0.86650000
O       -1.33180000      -1.60100000      -1.30010000
C       -1.29370000      -0.84500000      -0.09190000
C       -0.42430000      -1.91020000       0.65500000
C        0.37070000      -0.74830000       1.22190000
O        0.77100000      -0.41600000       2.30340000
H        0.25200000       1.73480000       0.76760000
H        0.72610000      -0.46070000      -2.12380000
H        1.90810000      -0.94510000      -0.86560000
H        0.26440000      -3.03660000      -1.29420000
H       -2.22530000      -0.40340000       0.25340000
H       -0.81630000      -2.75080000       1.21770000
