17
Properties=species:S:1:pos:R:3 gdb_14887=T pbc="F F F"
N        0.06770000      -1.17840000       0.00900000
C       -0.00620000      -0.02210000       0.00840000
C       -0.04820000       1.40730000       0.00820000
C       -1.22950000       2.04400000       0.02640000
C       -1.36470000       3.53910000       0.05780000
C       -0.04220000       4.24450000       0.39090000
C        1.12130000       3.61140000      -0.38100000
C        1.28600000       2.13100000      -0.01280000
H       -2.14440000       1.45820000       0.01750000
H       -1.74410000       3.87740000      -0.91850000
H       -2.14380000       3.81500000       0.77920000
H       -0.12070000       5.31280000       0.16660000
H        0.15070000       4.16080000       1.46790000
H        0.93110000       3.69730000      -1.45840000
H        2.05510000       4.14640000      -0.18170000
H        1.76130000       2.03070000       0.97250000
H        1.95730000       1.63020000      -0.71880000
