17
Properties=species:S:1:pos:R:3 gdb_116413=T pbc="F F F"
C       -0.16950000       1.31300000       0.09480000
O        0.06860000      -0.08750000       0.06440000
C        0.61580000      -0.57740000      -1.12550000
C        1.34200000      -1.88540000      -0.80180000
O        1.74370000      -2.49840000      -2.01750000
C        0.63840000      -2.87550000      -2.75930000
O       -0.22060000      -1.78040000      -3.11430000
C       -0.44520000      -0.77730000      -2.22660000
O       -1.39070000      -0.05410000      -2.36880000
H        0.75690000       1.87250000      -0.10590000
H       -0.93360000       1.60410000      -0.63060000
H       -0.51050000       1.54630000       1.10580000
H        1.35000000       0.12740000      -1.55250000
H        2.24050000      -1.69670000      -0.21290000
H        0.67560000      -2.54540000      -0.22600000
H        0.99110000      -3.29580000      -3.70190000
H        0.02390000      -3.60970000      -2.21460000
