16
Properties=species:S:1:pos:R:3 gdb_55503=T pbc="F F F"
C        0.55440000       0.91560000      -0.05320000
C       -0.58900000       0.03010000       0.34670000
N       -1.26480000      -0.01450000       1.40350000
O       -1.00400000      -0.83320000      -0.68540000
C       -0.23330000      -1.89510000      -0.96910000
O        0.79030000      -2.19020000      -0.40830000
C       -0.82250000      -2.71830000      -2.14110000
C       -0.16160000      -4.05710000      -2.34730000
O       -1.71630000      -2.27690000      -2.81390000
H        0.77610000       1.63990000       0.73250000
H        1.44330000       0.30700000      -0.24130000
H        0.30890000       1.44890000      -0.97700000
H       -0.93410000       0.68440000       2.06840000
H       -0.28360000      -4.67440000      -1.45050000
H       -0.60420000      -4.55420000      -3.21020000
H        0.91610000      -3.92760000      -2.48440000
