16
Properties=species:S:1:pos:R:3 gdb_20179=T pbc="F F F"
C       -0.09230000       1.35170000       0.20690000
C        1.42650000       1.45620000      -0.11790000
C        2.31190000       0.16980000      -0.06030000
O        2.25240000      -0.95190000       0.78180000
C        1.27160000      -1.92410000       0.31420000
C       -0.03690000      -1.18090000       0.28020000
C        0.03220000      -0.03530000      -0.40410000
C        1.31910000       0.32780000      -1.14730000
H       -0.42380000       1.41410000       1.24780000
H       -0.63210000       2.08460000      -0.40330000
H        1.93800000       2.40640000      -0.24100000
H        3.34780000       0.41230000      -0.29050000
H        1.58420000      -2.31270000      -0.66240000
H        1.28900000      -2.73510000       1.04330000
H       -0.74110000      -1.30740000       1.09820000
H        1.49100000       0.32180000      -2.21670000
