14
Properties=species:S:1:pos:R:3 gdb_123770=T pbc="F F F"
C       -0.07530000       1.18170000      -0.16940000
C        1.42980000       1.50140000      -0.07150000
C        1.50800000       0.19950000       0.75650000
O        0.09190000      -0.04080000       0.59010000
C        2.32960000      -0.92060000       0.20540000
N        2.73660000      -1.03230000      -1.02680000
O        3.40130000      -2.20350000      -1.07040000
N        3.37350000      -2.78340000       0.20360000
N        2.73470000      -2.01200000       0.95810000
H       -0.74500000       1.88190000       0.34170000
H       -0.45900000       0.98390000      -1.17580000
H        1.97440000       1.47350000      -1.01450000
H        1.69070000       2.40560000       0.47820000
H        1.76490000       0.32130000       1.81490000
