11
Properties=species:S:1:pos:R:3 gdb_760=T pbc="F F F"
N       -0.00180000       1.44880000       0.17390000
C       -0.01040000       0.04890000       0.04690000
C       -1.09820000      -0.80430000       0.02470000
N       -0.58580000      -2.06730000      -0.02650000
N        0.75120000      -2.09740000      -0.04200000
C        1.11040000      -0.81500000       0.00450000
H        0.81740000       1.86510000      -0.24980000
H       -0.82630000       1.88320000      -0.22020000
H       -2.15970000      -0.61700000       0.04560000
H       -1.09490000      -2.93320000      -0.05660000
H        2.15720000      -0.54660000       0.00830000
