12
Properties=species:S:1:pos:R:3 gdb_23664=T pbc="F F F"
N       -0.04090000       1.36220000      -0.10740000
C        0.02860000       0.00350000      -0.04390000
N       -1.14640000      -0.65470000      -0.02380000
C       -1.07630000      -1.97890000      -0.00110000
N        0.02030000      -2.74100000       0.00910000
C        1.15180000      -2.06070000      -0.00760000
F        2.26620000      -2.77920000       0.00420000
C        1.25240000      -0.68430000      -0.03470000
H        0.76820000       1.91340000       0.12090000
H       -0.94380000       1.76990000       0.07310000
H       -2.02560000      -2.50910000       0.01400000
H        2.21240000      -0.18510000      -0.05180000
