17
Properties=species:S:1:pos:R:3 gdb_82085=T pbc="F F F"
N        0.11560000       1.16370000       0.44600000
C        0.06400000       0.00400000      -0.26730000
O        0.91340000      -0.34040000      -1.06660000
C       -1.19740000      -0.82890000      -0.06030000
C       -0.99120000      -2.32600000       0.14770000
N       -0.39230000      -2.47630000       1.49800000
C       -1.86330000      -2.33530000       1.35270000
C       -2.05690000      -0.81540000       1.28180000
O       -1.56760000      -0.09560000       2.38940000
H        0.97100000       1.69460000       0.39090000
H       -0.47010000       1.25850000       1.26480000
H       -1.85950000      -0.64070000      -0.91130000
H       -0.84760000      -3.08650000      -0.60730000
H       -0.18190000      -3.46180000       1.64250000
H       -2.54120000      -3.08700000       1.73650000
H       -3.08500000      -0.49250000       1.11250000
H       -0.76850000      -0.57600000       2.65810000
