20
Properties=species:S:1:pos:R:3 gdb_102064=T pbc="F F F"
C       -0.32280000       1.44440000      -0.00380000
C        0.14980000      -0.01190000      -0.01550000
N        0.86560000      -0.38660000      -1.23030000
C        2.19230000      -0.70270000      -1.19000000
O        2.85440000      -1.10800000      -2.12120000
C        0.08100000      -0.61140000      -2.46090000
C        0.59840000       0.20370000      -3.66080000
C       -0.03680000      -2.03970000      -2.77410000
C       -0.17480000      -3.20300000      -3.03970000
H        0.52730000       2.12770000      -0.08670000
H       -1.00800000       1.65460000      -0.83120000
H       -0.85310000       1.66170000       0.92880000
H        0.82230000      -0.18610000       0.83010000
H       -0.70260000      -0.69000000       0.12030000
H        2.61940000      -0.53680000      -0.18010000
H       -0.92610000      -0.24760000      -2.22710000
H       -0.07740000       0.06920000      -4.50950000
H        0.62900000       1.26540000      -3.39910000
H        1.59740000      -0.12700000      -3.93950000
H       -0.27250000      -4.23390000      -3.27500000
