12
Properties=species:S:1:pos:R:3 gdb_129345=T pbc="F F F"
N       -0.18420000       1.29410000       0.01130000
C       -0.01010000       0.05250000       0.00230000
O       -1.15160000      -0.73250000       0.00710000
C       -1.06570000      -2.06630000      -0.00020000
N       -2.23470000      -2.69830000       0.00420000
C       -2.09720000      -4.01340000      -0.00340000
N       -0.93590000      -4.68640000      -0.01450000
N        0.17380000      -3.97810000      -0.01830000
N        0.13520000      -2.65890000      -0.01120000
H        0.71540000       1.77220000       0.00660000
H        0.91240000      -0.52440000      -0.00880000
H       -2.99960000      -4.61860000      -0.00050000
