14
Properties=species:S:1:pos:R:3 gdb_27852=T pbc="F F F"
N       -0.02660000       1.34270000      -0.07990000
C        0.00570000      -0.01330000      -0.03380000
N       -1.14740000      -0.63850000      -0.01520000
C       -1.19610000      -1.98670000      -0.00830000
N       -2.23880000      -2.70030000      -0.00050000
O        0.08910000      -2.70760000      -0.00280000
C        1.22550000      -2.02570000      -0.01750000
O        2.31110000      -2.80050000      -0.01380000
C        1.27940000      -0.67480000      -0.03490000
H        0.80030000       1.87840000       0.11440000
H       -0.92280000       1.78140000       0.05490000
H       -2.00270000      -3.68960000       0.00780000
H        2.01630000      -3.72140000      -0.00470000
H        2.22500000      -0.15520000      -0.05700000
