19
Properties=species:S:1:pos:R:3 gdb_1107=T pbc="F F F"
C        0.06880000       1.51340000       0.19580000
C        0.00080000       0.00060000       0.00150000
O       -1.33720000      -0.48240000       0.09500000
C        0.67960000      -0.50440000      -1.30120000
C        0.70160000      -2.03730000      -1.30090000
C       -0.01660000       0.02520000      -2.56300000
O        2.01620000       0.00680000      -1.22500000
H        1.10070000       1.86330000       0.13430000
H       -0.51310000       2.04200000      -0.56920000
H       -0.34280000       1.77900000       1.17360000
H        0.53580000      -0.47940000       0.82940000
H       -1.90180000       0.11990000      -0.40020000
H       -0.31170000      -2.43850000      -1.22790000
H        1.15950000      -2.41970000      -2.22110000
H        1.28330000      -2.40450000      -0.45000000
H        0.03370000       1.11580000      -2.61430000
H        0.46960000      -0.37450000      -3.46000000
H       -1.06560000      -0.28610000      -2.59720000
H        2.52140000      -0.38150000      -1.94650000
