18
Properties=species:S:1:pos:R:3 gdb_81206=T pbc="F F F"
C        0.03120000       1.36350000      -0.40490000
N        0.05910000      -0.04840000      -0.02330000
C       -1.05630000      -0.55910000       0.83790000
C       -0.12970000      -1.81350000       1.10640000
C        0.70910000      -0.51860000       1.28640000
C        1.78400000       0.38750000       1.89630000
C        0.56740000       1.28030000       2.38670000
O        0.50400000       2.34520000       2.91540000
C       -0.42970000       0.09190000       2.12940000
H        1.03820000       1.67280000      -0.70230000
H       -0.60840000       1.44940000      -1.28970000
H       -0.34530000       2.07470000       0.34300000
H       -2.09760000      -0.56670000       0.50320000
H       -0.33170000      -2.39500000       2.00660000
H        0.08040000      -2.42150000       0.22630000
H        2.27690000      -0.05230000       2.76980000
H        2.53560000       0.84460000       1.24860000
H       -0.69040000      -0.37590000       3.08600000
