15
Properties=species:S:1:pos:R:3 gdb_69686=T pbc="F F F"
O       -0.05120000       1.44990000       0.15230000
C       -0.02610000       0.08280000      -0.00740000
C       -0.42110000      -0.64490000      -1.25660000
C       -1.16660000      -0.89630000       0.03840000
N       -0.50290000      -1.73620000       1.12200000
C        0.83480000      -2.26630000       0.73870000
C        1.21100000      -2.90990000      -0.49530000
N        1.56490000      -3.50320000      -1.42360000
C        0.67670000      -0.81580000       1.03810000
H        0.61910000       1.83790000      -0.42180000
H       -1.01460000      -0.01460000      -1.91420000
H        0.19240000      -1.36770000      -1.77530000
H       -2.23480000      -0.76110000       0.13690000
H        1.23280000      -2.82940000       1.58260000
H        1.11020000      -0.38770000       1.93760000
