18
Properties=species:S:1:pos:R:3 gdb_81750=T pbc="F F F"
C       -0.11110000       1.59250000      -0.12310000
C        0.02440000       0.07890000      -0.05640000
C        0.74130000      -0.63680000      -1.20760000
N        2.14510000      -0.19000000      -1.18950000
C        1.71750000      -1.28250000      -0.27110000
C        2.30760000      -2.57610000      -0.31620000
N        2.78430000      -3.63210000      -0.31360000
C        1.07670000      -0.55400000       0.94930000
N        1.86710000       0.36210000       1.72590000
H        0.83140000       2.05970000      -0.41840000
H       -0.87580000       1.88030000      -0.85230000
H       -0.39920000       1.99490000       0.85180000
H       -0.95050000      -0.38540000       0.11870000
H        0.30710000      -1.05840000      -2.10590000
H        2.62750000      -0.61590000      -1.98010000
H        0.59220000      -1.27010000       1.61600000
H        2.45130000      -0.13400000       2.39090000
H        2.48040000       0.89010000       1.11170000
