19
Properties=species:S:1:pos:R:3 gdb_40078=T pbc="F F F"
C       -0.24860000       1.32060000      -0.23110000
C        1.18690000       0.87700000       0.00580000
C        0.08250000      -0.12040000       0.05760000
C       -0.39400000      -0.84700000       1.30680000
C       -1.41830000      -1.82630000       0.74010000
O       -2.69410000      -1.21870000       0.43510000
C       -2.48290000      -1.35760000      -0.98810000
C       -1.06280000      -1.92380000      -0.76660000
O        0.02060000      -1.05120000      -1.01040000
H       -0.74860000       1.90300000       0.53550000
H       -0.52290000       1.57050000      -1.24960000
H        1.84330000       0.83590000      -0.85620000
H        1.67370000       1.15470000       0.93470000
H        0.42930000      -1.40320000       1.77060000
H       -0.83460000      -0.18190000       2.05230000
H       -1.53480000      -2.74470000       1.32330000
H       -3.19500000      -2.06160000      -1.43700000
H       -2.52790000      -0.39970000      -1.51690000
H       -0.83560000      -2.88850000      -1.22120000
