14
Properties=species:S:1:pos:R:3 gdb_28529=T pbc="F F F"
N        0.02760000       1.36140000      -0.11720000
C       -0.00280000      -0.02530000      -0.06120000
C       -1.18910000      -0.75630000      -0.02860000
N       -1.17570000      -2.09640000      -0.03420000
C       -0.01770000      -2.71490000      -0.07520000
O        0.03260000      -4.06750000      -0.08390000
C        1.18500000      -1.97580000      -0.10630000
O        2.35960000      -2.63170000      -0.14130000
N        1.18340000      -0.65940000      -0.09450000
H        0.91330000       1.75260000       0.16910000
H       -0.76260000       1.83020000       0.29940000
H       -2.15800000      -0.26770000      -0.00020000
H       -0.88660000      -4.36610000      -0.05850000
H        3.04730000      -1.95150000      -0.16210000
