19
Properties=species:S:1:pos:R:3 gdb_77597=T pbc="F F F"
C       -0.04060000       1.58340000       0.02840000
C        0.03610000       0.07720000      -0.00160000
C        0.38440000      -0.65070000      -1.25650000
C        1.13290000      -1.73510000      -1.03510000
C        1.47340000      -1.90120000       0.43160000
C        0.66720000      -0.78540000       1.08750000
O        1.17420000      -0.15190000       2.23490000
C       -0.83700000      -0.76500000       0.95040000
O       -1.54290000      -0.13070000       1.96680000
H        0.94570000       2.04200000      -0.09560000
H       -0.68510000       1.94700000      -0.77970000
H       -0.46860000       1.93320000       0.97020000
H        0.02520000      -0.32430000      -2.22680000
H        1.47250000      -2.43140000      -1.79280000
H        1.20590000      -2.89440000       0.81580000
H        2.54860000      -1.76490000       0.62020000
H        1.31020000      -0.82820000       2.90940000
H       -1.36960000      -1.61940000       0.54010000
H       -0.87970000       0.18190000       2.59900000
