22
Properties=species:S:1:pos:R:3 gdb_94166=T pbc="F F F"
C       -0.67750000       1.14310000      -0.11130000
C        0.21040000      -0.09000000      -0.13590000
C        1.64050000      -0.00860000      -0.73540000
C        2.13230000      -0.97940000       0.37060000
C        0.83910000      -0.64930000       1.18600000
C        1.08830000       0.40690000       2.27210000
C        0.05610000      -1.80450000       1.79880000
N        0.80860000      -2.74330000       2.44760000
O       -1.15860000      -1.86850000       1.74700000
H       -0.17890000       2.00130000       0.35140000
H       -0.95690000       1.43550000      -1.12970000
H       -1.59780000       0.93970000       0.44490000
H       -0.33860000      -0.90970000      -0.60990000
H        1.76980000      -0.32450000      -1.77320000
H        2.07470000       0.98970000      -0.62400000
H        2.14860000      -2.01710000       0.02410000
H        3.08970000      -0.75370000       0.85010000
H        1.63950000       1.26350000       1.87200000
H        0.14500000       0.77190000       2.68860000
H        1.67840000      -0.01540000       3.09250000
H        1.81230000      -2.74590000       2.40400000
H        0.33910000      -3.54010000       2.84570000
