19
Properties=species:S:1:pos:R:3 gdb_90067=T pbc="F F F"
C       -0.44770000       1.51780000      -0.01040000
C        0.00020000       0.06340000       0.02140000
C        1.18470000      -0.38520000      -0.95860000
C        2.04950000      -0.51860000       0.29720000
C        2.96190000      -1.07510000       1.41750000
C        2.02860000       0.07850000       1.99600000
O        2.33150000       0.86160000       0.80360000
C        0.82450000      -0.53790000       1.24160000
O        0.30070000      -1.68720000       1.83960000
H        0.40550000       2.18920000       0.08600000
H       -0.97000000       1.74180000      -0.94780000
H       -1.14280000       1.72110000       0.81150000
H       -0.88070000      -0.57540000      -0.12220000
H        0.96950000      -1.33640000      -1.45220000
H        1.53120000       0.34070000      -1.69830000
H        2.76780000      -2.09570000       1.74910000
H        4.02190000      -0.81930000       1.37430000
H        2.11190000       0.57480000       2.96820000
H       -0.25820000      -2.14850000       1.20590000
