18
Properties=species:S:1:pos:R:3 gdb_127093=T pbc="F F F"
C       -0.28430000       1.35910000      -0.05180000
N        0.22450000       0.00060000       0.00110000
C        0.10020000      -0.68490000       1.27610000
C        0.07100000      -0.78530000      -1.12680000
C        0.12140000      -2.16510000      -1.28560000
C       -0.04690000      -2.34970000      -2.67470000
O       -0.06150000      -3.54810000      -3.29720000
N       -0.20190000      -1.22320000      -3.34520000
N       -0.13310000      -0.26330000      -2.36460000
H        0.19310000       1.91690000      -0.86500000
H       -1.37720000       1.41370000      -0.18600000
H       -0.02600000       1.87020000       0.87810000
H       -0.92220000      -1.04270000       1.47800000
H        0.77500000      -1.54410000       1.29980000
H        0.39610000      -0.00310000       2.07730000
H        0.25230000      -2.92140000      -0.53290000
H       -0.19950000      -3.36990000      -4.23610000
H       -0.21410000       0.70020000      -2.62850000
