15
Properties=species:S:1:pos:R:3 gdb_29050=T pbc="F F F"
N       -0.00300000       1.35160000       0.00940000
C       -0.03860000       0.00750000       0.00190000
C       -1.25670000      -0.66960000       0.00500000
N       -1.57370000      -1.96790000       0.00020000
C       -0.75180000      -2.98870000      -0.00930000
C        0.66380000      -3.01570000      -0.01710000
C        1.55980000      -1.98290000      -0.01710000
C        1.34070000      -0.56000000      -0.00920000
O        2.28280000       0.23970000      -0.01120000
H        0.92360000       1.75900000       0.00370000
H       -0.83290000       1.91660000       0.01350000
H       -2.13270000      -0.01650000       0.01320000
H       -1.24110000      -3.96250000      -0.01150000
H        1.09300000      -4.01570000      -0.02430000
H        2.61800000      -2.23030000      -0.02430000
