21
Properties=species:S:1:pos:R:3 gdb_87770=T pbc="F F F"
C       -0.13420000       1.49680000      -0.02280000
C       -0.02260000      -0.01000000       0.04550000
C        1.30400000      -0.69670000      -0.20970000
C        0.71090000      -0.67710000       1.17070000
C        1.35290000      -0.06670000       2.44390000
C        0.90280000      -1.34060000       3.19900000
C        1.53620000      -1.97910000       4.39120000
O       -0.52550000      -1.40770000       3.06490000
C        0.28690000      -1.88840000       1.97600000
H        0.77430000       1.97930000       0.35310000
H       -0.28670000       1.83650000      -1.05320000
H       -0.97510000       1.85970000       0.57820000
H       -0.90070000      -0.54170000      -0.31460000
H        1.30880000      -1.63410000      -0.75790000
H        2.17180000      -0.07020000      -0.39590000
H        2.43970000       0.03200000       2.36940000
H        0.92180000       0.86380000       2.82300000
H        1.40550000      -1.35420000       5.28220000
H        1.08000000      -2.95260000       4.58980000
H        2.61080000      -2.11820000       4.23420000
H        0.12590000      -2.91080000       1.64970000
