18
Properties=species:S:1:pos:R:3 gdb_16489=T pbc="F F F"
C       -0.02060000       1.62020000      -0.06860000
C        0.07620000       0.10110000      -0.00700000
C        1.12470000      -0.69450000      -0.85550000
C        2.51720000      -0.13740000      -0.44280000
C        2.22580000      -0.74130000       0.92720000
C        1.23260000      -1.72950000       0.33780000
C        0.70710000      -0.61340000       1.18780000
O        0.17820000      -0.74990000       2.45680000
H        0.93630000       2.10530000       0.14590000
H       -0.35460000       1.95680000      -1.05650000
H       -0.74800000       1.98690000       0.66440000
H       -0.91010000      -0.34440000      -0.18400000
H        0.90560000      -0.94170000      -1.89210000
H        3.32200000      -0.67830000      -0.94960000
H        2.69390000       0.93990000      -0.53490000
H        2.89910000      -0.91360000       1.75810000
H        1.14410000      -2.80310000       0.41010000
H        0.46130000       0.00320000       2.98670000
