15
Properties=species:S:1:pos:R:3 gdb_7972=T pbc="F F F"
N        0.06060000       1.32780000       0.18630000
C       -0.02930000      -0.01300000       0.03810000
C       -1.15460000      -0.78290000       0.04250000
C       -0.78740000      -2.16990000      -0.13270000
O       -1.46780000      -3.14660000      -0.39500000
C        0.74560000      -2.27530000       0.00990000
O        1.27840000      -3.17020000      -0.93380000
C        1.23240000      -0.82890000      -0.15720000
H        0.92620000       1.79870000      -0.01310000
H       -0.77040000       1.89520000       0.19400000
H       -2.17420000      -0.42430000       0.09470000
H        0.95960000      -2.61680000       1.03710000
H        0.55730000      -3.79490000      -1.10860000
H        1.62290000      -0.69260000      -1.17240000
H        2.01910000      -0.53690000       0.54640000
