13
Properties=species:S:1:pos:R:3 gdb_4276=T pbc="F F F"
N        0.04270000       1.33080000       0.13130000
C       -0.05130000      -0.02360000       0.04410000
N       -1.17320000      -0.63960000       0.02100000
C       -1.18420000      -2.04500000      -0.00330000
N       -2.25560000      -2.74430000      -0.01580000
C        0.12670000      -2.69740000      -0.02070000
C        1.23200000      -1.95570000      -0.00850000
O        1.19480000      -0.58260000       0.02620000
H        0.91040000       1.75890000      -0.14570000
H       -0.80710000       1.83690000      -0.05480000
H       -3.05870000      -2.11140000      -0.00100000
H        0.17950000      -3.77720000      -0.04640000
H        2.25220000      -2.31440000      -0.02150000
