17
Properties=species:S:1:pos:R:3 gdb_39725=T pbc="F F F"
C       -0.00540000       1.50350000       0.00720000
C        1.30870000       0.74570000      -0.01040000
C        0.00810000       0.00790000       0.03500000
C       -0.48780000      -0.87780000       1.14560000
C       -1.73800000      -1.52190000       0.54550000
O       -1.89880000      -1.02430000      -0.77120000
C       -0.51730000      -0.87690000      -1.09360000
O        0.05330000      -2.15020000      -0.79730000
C       -0.43150000      -2.27540000       0.52800000
H       -0.28190000       2.03060000       0.91410000
H       -0.32420000       1.99680000      -0.90560000
H        1.87690000       0.72740000      -0.93510000
H        1.92150000       0.75990000       0.88460000
H       -0.35720000      -0.67590000       2.19900000
H       -2.65030000      -1.78780000       1.05770000
H       -0.37310000      -0.60280000      -2.13500000
H       -0.19460000      -3.20410000       1.02480000
