16
Properties=species:S:1:pos:R:3 gdb_44431=T pbc="F F F"
O       -0.20410000       0.11420000      -0.53280000
C       -0.09220000       1.20100000      -0.08780000
O       -1.12360000       2.07300000       0.33200000
C       -0.11920000       2.84110000       1.09700000
C        0.72440000       4.17220000       1.03310000
C        1.95150000       3.12680000       1.17240000
C        0.97950000       2.29580000       0.25410000
N        0.89650000       3.12860000      -0.98780000
C        0.77150000       4.50720000      -0.45040000
H       -0.13880000       2.46470000       2.12040000
H        0.57820000       4.97470000       1.75460000
H        2.90670000       3.44270000       0.74720000
H        2.07690000       2.74620000       2.18580000
H        1.74610000       3.00020000      -1.52560000
H       -0.14700000       4.98680000      -0.80410000
H        1.61920000       5.15070000      -0.71020000
