13
Properties=species:S:1:pos:R:3 gdb_4397=T pbc="F F F"
C       -0.01510000       1.51350000       0.01390000
C       -0.00430000       0.01650000      -0.05480000
N       -0.04450000      -0.60030000      -1.20640000
C       -0.02900000      -1.96800000      -1.12080000
N        0.01990000      -2.72150000      -0.06220000
C        0.06340000      -2.09580000       1.17320000
O        0.11100000      -2.64040000       2.24840000
N        0.04790000      -0.67300000       1.10560000
H        0.88540000       1.88420000       0.51510000
H       -0.05740000       1.91610000      -0.99700000
H       -0.88140000       1.86810000       0.58250000
H       -0.06220000      -2.47790000      -2.08270000
H        0.07910000      -0.19670000       1.99780000
