18
Properties=species:S:1:pos:R:3 gdb_23099=T pbc="F F F"
O       -0.17100000       1.35120000       0.27510000
N       -0.00060000      -0.04450000       0.29830000
C       -1.07890000      -0.63980000      -0.01140000
C       -2.43290000      -0.04140000      -0.32330000
C       -3.34270000      -1.26100000      -0.58140000
C       -2.67070000      -2.40880000       0.19630000
C       -1.15230000      -2.16720000      -0.02720000
C       -0.70050000      -2.70690000      -1.30890000
C       -0.35020000      -3.15270000      -2.36900000
H        0.70260000       1.66610000       0.53080000
H       -2.76520000       0.54620000       0.54120000
H       -2.37830000       0.65780000      -1.16260000
H       -4.37710000      -1.09180000      -0.27310000
H       -3.35170000      -1.50220000      -1.64910000
H       -2.88440000      -2.31760000       1.26740000
H       -2.98570000      -3.40140000      -0.13080000
H       -0.54060000      -2.58800000       0.77610000
H       -0.02400000      -3.54360000      -3.30080000
