20
Properties=species:S:1:pos:R:3 gdb_61312=T pbc="F F F"
O        0.82270000       1.88140000       0.53100000
C        0.22700000       0.69090000       0.05470000
C        0.62110000       0.55820000      -1.42550000
C       -0.02380000      -0.55970000      -2.10120000
C       -0.56610000      -1.48550000      -2.64370000
C        0.68820000      -0.49960000       0.90010000
N        0.42690000      -0.19470000       2.30600000
C       -0.81390000      -0.71560000       2.87770000
C        0.50240000      -1.30350000       3.24890000
H        0.84720000       1.78370000       1.49390000
H       -0.87270000       0.75670000       0.11630000
H        0.36200000       1.49970000      -1.92330000
H        1.71260000       0.46590000      -1.48910000
H       -1.03910000      -2.29950000      -3.13440000
H        0.19690000      -1.42560000       0.56220000
H        1.77170000      -0.62320000       0.78020000
H       -1.33390000      -0.05410000       3.56400000
H       -1.46110000      -1.30510000       2.23110000
H        0.73780000      -2.28850000       2.85050000
H        0.95640000      -1.07880000       4.20970000
