20
Properties=species:S:1:pos:R:3 gdb_62446=T pbc="F F F"
C       -0.04600000       1.56400000      -0.01520000
C        0.01460000       0.04400000      -0.05520000
C       -1.09000000      -0.56960000       0.64970000
C       -2.03330000      -1.04940000       1.22040000
C        0.60190000      -0.72540000      -1.20630000
C        1.43600000      -0.00780000      -2.25910000
C        2.62720000       0.61930000      -1.48680000
C        2.53320000       0.04240000      -0.04580000
N        1.28310000      -0.72790000       0.09330000
H        0.68330000       2.04510000      -0.66610000
H       -1.04190000       1.89240000      -0.32590000
H        0.11290000       1.92320000       1.00680000
H       -2.85530000      -1.48620000       1.73100000
H        0.11390000      -1.65270000      -1.49460000
H        1.78260000      -0.74210000      -2.99240000
H        0.86060000       0.74150000      -2.81140000
H        3.58170000       0.36000000      -1.95220000
H        2.57130000       1.71040000      -1.48460000
H        3.35200000      -0.65720000       0.14820000
H        2.58900000       0.82070000       0.72170000
