19
Properties=species:S:1:pos:R:3 gdb_30830=T pbc="F F F"
C       -0.48410000       1.52840000       0.18150000
C        0.10840000       0.12500000      -0.04500000
C        0.85010000      -0.42460000       1.12640000
C        2.17990000      -0.67230000       1.34960000
O        3.19420000      -0.46560000       0.47350000
N        2.41100000      -1.17460000       2.59900000
C        1.22310000      -1.24610000       3.17510000
C        0.95290000      -1.73990000       4.55660000
N        0.25370000      -0.80420000       2.32960000
H        0.30410000       2.24750000       0.42260000
H       -1.01010000       1.87970000      -0.71210000
H       -1.20030000       1.53220000       1.01080000
H       -0.69670000      -0.56100000      -0.34580000
H        0.80860000       0.15620000      -0.88550000
H        3.99690000      -0.75260000       0.92450000
H        0.48480000      -0.97140000       5.18310000
H        0.29150000      -2.61450000       4.55830000
H        1.89960000      -2.02630000       5.01620000
H       -0.73180000      -0.76650000       2.52890000
