20
Properties=species:S:1:pos:R:3 gdb_64060=T pbc="F F F"
C       -0.23200000       1.53270000       0.09660000
C       -0.04560000       0.01660000      -0.03240000
C       -1.40720000      -0.68990000      -0.15990000
C        0.81780000      -0.29590000      -1.22920000
C        1.64130000      -1.32280000      -1.40720000
C        1.97950000      -2.45580000      -0.48050000
N        1.53700000      -2.51270000       0.89150000
C        0.96510000      -1.60400000       1.54910000
O        0.53220000      -0.35520000       1.24460000
H        0.73730000       2.02840000       0.19680000
H       -0.73960000       1.93230000      -0.78580000
H       -0.83290000       1.76150000       0.98010000
H       -1.90020000      -0.40470000      -1.09390000
H       -1.27650000      -1.77510000      -0.16470000
H       -2.05540000      -0.41320000       0.67720000
H        0.68970000       0.40380000      -2.05230000
H        2.15020000      -1.39880000      -2.36810000
H        1.65940000      -3.39050000      -0.96810000
H        3.07660000      -2.54910000      -0.44840000
H        0.79060000      -1.77560000       2.61320000
