26
Properties=species:S:1:pos:R:3 gdb_87126=T pbc="F F F"
C       -0.26410000       1.59330000       0.30220000
N       -0.11910000       0.14810000       0.25860000
C        1.06510000      -0.42260000      -0.36900000
C        0.84030000      -0.56790000       1.10660000
C        1.77850000       0.22260000       2.01000000
C        0.27840000      -1.88210000       1.71280000
C        1.41950000      -2.74170000       2.29200000
C       -0.72160000      -1.51910000       2.83080000
C       -0.46930000      -2.71690000       0.65550000
H        0.68170000       2.15520000       0.34430000
H       -0.79880000       1.91560000      -0.59770000
H       -0.86860000       1.87600000       1.17040000
H        0.89440000      -1.23900000      -1.06460000
H        1.85680000       0.26310000      -0.67360000
H        2.10940000       1.14790000       1.53490000
H        1.30400000       0.48790000       2.96000000
H        2.67660000      -0.35720000       2.23850000
H        1.89160000      -2.27620000       3.16200000
H        1.03160000      -3.71430000       2.61300000
H        2.19700000      -2.92620000       1.54210000
H       -1.54210000      -0.91760000       2.42760000
H       -1.14990000      -2.42550000       3.27170000
H       -0.25060000      -0.95520000       3.64200000
H        0.21770000      -3.15540000      -0.07540000
H       -0.99610000      -3.54430000       1.14160000
H       -1.20170000      -2.10540000       0.12370000
