21
Properties=species:S:1:pos:R:3 gdb_69960=T pbc="F F F"
C       -0.00060000       1.56650000       0.09870000
C        0.05650000       0.06510000       0.03160000
C       -0.88250000      -0.81740000       0.80050000
C        0.59680000      -0.96790000       1.04180000
C        1.29810000      -1.75700000      -0.08370000
C        0.49100000      -2.82190000      -0.84800000
O       -0.10790000      -1.81130000      -1.70050000
C        0.72320000      -0.76170000      -1.11390000
C        1.53170000      -0.02240000      -2.14760000
H        0.96580000       2.03050000      -0.12670000
H       -0.73530000       1.97010000      -0.60880000
H       -0.29780000       1.89510000       1.10010000
H       -1.41840000      -0.31500000       1.60040000
H       -1.46000000      -1.58020000       0.29050000
H        1.02680000      -0.79440000       2.02160000
H        2.37120000      -1.90130000       0.03740000
H        1.10360000      -3.51930000      -1.43310000
H       -0.25780000      -3.38940000      -0.28310000
H        0.87410000       0.55320000      -2.80860000
H        2.23270000       0.67350000      -1.67620000
H        2.09950000      -0.72620000      -2.76280000
