25
Properties=species:S:1:pos:R:3 gdb_86412=T pbc="F F F"
C       -0.80420000       1.07580000       0.83130000
C        0.12620000      -0.02120000       0.30330000
C        0.84570000       0.44030000      -0.98940000
C        2.18800000      -0.28330000      -1.26580000
C        3.10260000       0.57930000      -2.14180000
C        2.85430000      -0.67300000       0.06980000
C        1.95270000      -1.68800000       0.82080000
C        1.16930000      -0.45880000       1.35210000
C        2.49600000       0.34410000       1.19530000
H       -0.23270000       1.95780000       1.14430000
H       -1.51470000       1.39880000       0.06240000
H       -1.38050000       0.72760000       1.69520000
H       -0.48950000      -0.90240000       0.07360000
H        0.17720000       0.35070000      -1.85280000
H        1.05590000       1.51330000      -0.89240000
H        1.98470000      -1.21680000      -1.80930000
H        3.39680000       1.49650000      -1.61770000
H        4.01760000       0.04150000      -2.41270000
H        2.60080000       0.87570000      -3.06950000
H        3.90720000      -0.93240000      -0.07380000
H        1.40370000      -2.42330000       0.22210000
H        2.49410000      -2.20480000       1.61850000
H        0.72370000      -0.52780000       2.34880000
H        3.14290000       0.21420000       2.06700000
H        2.44600000       1.40920000       0.95170000
