19
Properties=species:S:1:pos:R:3 gdb_65393=T pbc="F F F"
C        0.17580000       1.32560000       0.42500000
C       -0.06920000      -0.14440000       0.14090000
C        0.99930000      -0.90570000      -0.61140000
N        0.79260000      -1.12660000       0.79950000
C        1.74020000      -0.88230000       1.77640000
O        2.92150000      -1.10420000       1.66510000
C       -1.49030000      -0.61580000      -0.02610000
C       -2.65730000       0.13120000       0.50850000
N       -2.42490000       0.05310000      -0.94450000
H        1.24690000       1.54290000       0.43430000
H       -0.28090000       1.95830000      -0.34330000
H       -0.23980000       1.62300000       1.39240000
H        0.71130000      -1.72170000      -1.26880000
H        1.90340000      -0.37480000      -0.89890000
H        1.27700000      -0.52110000       2.71450000
H       -1.55700000      -1.70080000      -0.06250000
H       -3.52690000      -0.41450000       0.86320000
H       -2.48400000       1.07660000       1.01400000
H       -2.02900000       0.92810000      -1.27970000
