16
Properties=species:S:1:pos:R:3 gdb_22339=T pbc="F F F"
O       -0.02670000       1.29270000       0.04860000
N        0.01710000      -0.08480000       0.02060000
C       -1.13290000      -0.64420000      -0.03070000
C       -1.26610000      -2.14690000      -0.06790000
C       -2.63590000      -2.38350000      -0.72690000
O       -3.11430000      -3.65760000      -0.34290000
C       -3.49160000      -1.19840000      -0.24290000
C       -2.51220000      -0.02870000      -0.11470000
O       -2.79580000       1.14170000      -0.09840000
H        0.90880000       1.52700000       0.07010000
H       -0.44050000      -2.63940000      -0.58380000
H       -1.31420000      -2.55420000       0.95100000
H       -2.52360000      -2.32490000      -1.82080000
H       -3.93850000      -3.82570000      -0.81070000
H       -4.34180000      -0.93970000      -0.87820000
H       -3.87530000      -1.43270000       0.75980000
