15
Properties=species:S:1:pos:R:3 gdb_17163=T pbc="F F F"
O       -0.05670000      -0.04350000       0.08070000
C        0.01830000       1.15910000       0.00700000
C        1.30380000       1.90820000       0.00470000
C        2.73850000       1.41010000       0.08760000
N        2.97650000       2.91780000      -0.00100000
C        1.77210000       3.04940000      -0.97240000
C        1.17230000       4.18880000      -0.14650000
C        1.70730000       3.16710000       0.85840000
H       -0.89850000       1.78980000      -0.06560000
H        3.07560000       0.97000000       1.03020000
H        3.13920000       0.85450000      -0.76480000
H        1.91680000       2.95490000      -2.05000000
H        1.71210000       5.13800000      -0.18840000
H        0.09110000       4.33400000      -0.19410000
H        1.77530000       3.21180000       1.94670000
