22
Properties=species:S:1:pos:R:3 gdb_119068=T pbc="F F F"
C       -0.10220000       1.37940000       0.13360000
O       -0.22690000      -0.01180000       0.33530000
C        0.92780000      -0.59410000       0.93300000
C        0.73870000      -2.09610000       0.94540000
C        0.93080000      -2.77260000      -0.40590000
O        0.38100000      -2.05560000      -1.49740000
C        1.09700000      -2.86530000       2.17500000
N       -0.29760000      -2.70190000       1.79540000
C       -1.14400000      -1.87490000       2.64590000
H        0.73270000       1.61710000      -0.54220000
H       -1.03470000       1.72950000      -0.31440000
H        0.05800000       1.90990000       1.08450000
H        1.82420000      -0.34080000       0.34570000
H        1.06820000      -0.18550000       1.94380000
H        2.00740000      -2.87690000      -0.60400000
H        0.50420000      -3.78370000      -0.33490000
H       -0.29050000      -1.45880000      -1.14650000
H        1.50620000      -3.86960000       2.08950000
H        1.46820000      -2.29850000       3.02910000
H       -0.61620000      -1.06290000       3.16960000
H       -1.93860000      -1.43120000       2.04150000
H       -1.59910000      -2.51940000       3.40480000
