15
Properties=species:S:1:pos:R:3 gdb_20923=T pbc="F F F"
C       -0.08920000       1.55540000      -0.04430000
C       -0.07830000       0.03020000       0.06480000
N       -1.40930000      -0.54600000       0.01030000
N       -2.08500000      -0.92020000       1.12790000
N       -3.22250000      -1.36550000       0.79290000
N       -3.31110000      -1.28160000      -0.56910000
C       -2.16330000      -0.74940000      -1.13540000
N       -1.78260000      -0.47840000      -2.32490000
H        0.93540000       1.93730000      -0.00980000
H       -0.54070000       1.86290000      -0.99070000
H       -0.65210000       2.00180000       0.78050000
H        0.48870000      -0.40690000      -0.76230000
H        0.36430000      -0.30170000       1.00670000
H       -4.14870000      -1.58590000      -1.03250000
H       -2.48810000      -0.72310000      -3.01380000
