19
Properties=species:S:1:pos:R:3 gdb_76672=T pbc="F F F"
N       -0.30040000       1.42720000       0.05190000
C       -0.10090000      -0.01210000       0.14140000
C       -0.43730000      -0.73120000       1.43560000
N       -0.90800000       0.10890000       2.50910000
H       -0.63290000       1.75840000       0.95740000
H       -1.64790000      -0.34580000       3.03440000
H       -0.15670000       0.30840000       3.16150000
C       -1.32840000      -0.88530000       0.20980000
C       -2.72490000      -0.28630000       0.14310000
C       -3.11410000       0.17840000      -1.26690000
O       -4.05590000      -0.27370000      -1.86580000
O       -2.33940000       1.13640000      -1.79190000
H        0.57870000       1.89420000      -0.14170000
H       -1.61020000       1.39180000      -1.16750000
H        0.73780000      -0.36820000      -0.44620000
H        0.16980000      -1.59900000       1.69470000
H       -1.24180000      -1.84410000      -0.29330000
H       -3.46940000      -1.02350000       0.45090000
H       -2.80190000       0.56780000       0.82320000
