16
Properties=species:S:1:pos:R:3 gdb_96648=T pbc="F F F"
C        0.04200000       1.44390000       0.01060000
N        0.06190000      -0.00730000       0.01340000
C       -1.05040000      -0.62270000       0.02660000
N       -2.32630000      -0.10540000       0.07740000
C       -1.01470000      -2.13020000       0.07430000
C       -1.79900000      -2.86520000       1.09620000
O       -2.23860000      -2.80300000      -0.25870000
C        0.19090000      -2.75330000      -0.44070000
N        1.12010000      -3.30550000      -0.84640000
H        1.06420000       1.81970000      -0.06910000
H       -0.52900000       1.85600000      -0.83790000
H       -0.39620000       1.85260000       0.93360000
H       -2.43340000       0.86930000      -0.15370000
H       -3.05500000      -0.71330000      -0.26840000
H       -1.44730000      -3.83890000       1.42810000
H       -2.38280000      -2.28550000       1.80690000
