16
Properties=species:S:1:pos:R:3 gdb_29316=T pbc="F F F"
C        0.01100000       1.53600000      -0.00380000
C       -0.00550000       0.03920000      -0.01200000
C       -0.13160000      -0.80270000      -1.10210000
N       -0.09970000      -2.09760000      -0.68050000
C        0.04840000      -2.13410000       0.70050000
C        0.11920000      -3.30210000       1.47070000
C        0.18470000      -4.28240000       2.17440000
C        0.10720000      -0.80830000       1.11830000
O        0.24870000      -0.35530000       2.38870000
H        0.94470000       1.92710000       0.41580000
H       -0.09340000       1.93430000      -1.01700000
H       -0.80430000       1.94540000       0.60330000
H       -0.24150000      -0.56040000      -2.14750000
H       -0.17090000      -2.91250000      -1.26250000
H        0.24160000      -5.14810000       2.78590000
H        0.30430000      -1.11880000       2.97630000
