19
Properties=species:S:1:pos:R:3 gdb_93646=T pbc="F F F"
O       -0.63720000       1.27450000       0.88810000
C       -0.10140000       0.13980000       0.21120000
C        0.77750000      -0.74890000       1.12940000
C        0.05010000      -2.11060000       1.24360000
C       -1.43860000      -1.78360000       0.98130000
C       -2.11880000      -1.24970000       2.15540000
C       -2.67860000      -0.82430000       3.13090000
C       -1.31890000      -0.74320000      -0.17710000
O       -2.47250000      -0.01710000      -0.47980000
H        0.06700000       1.91220000       1.03190000
H        0.43490000       0.46710000      -0.68850000
H        1.79940000      -0.85990000       0.75710000
H        0.83010000      -0.26560000       2.10910000
H        0.39890000      -2.79630000       0.46350000
H        0.21130000      -2.59880000       2.20630000
H       -1.98600000      -2.66490000       0.63090000
H       -3.17730000      -0.44450000       3.98780000
H       -1.05490000      -1.31260000      -1.07630000
H       -2.49340000       0.72100000       0.14370000
