17
Properties=species:S:1:pos:R:3 gdb_2695=T pbc="F F F"
C       -0.03130000       1.51570000       0.03680000
C        0.01660000      -0.01300000      -0.02260000
C        0.72600000      -0.52350000      -1.26830000
O        0.72460000      -1.93770000      -1.24230000
C        1.36640000      -2.49870000      -2.36810000
C        1.33600000      -3.95370000      -2.28990000
C        1.32590000      -5.15380000      -2.25170000
H        0.97560000       1.94760000       0.04520000
H       -0.56350000       1.93320000      -0.82520000
H       -0.54520000       1.85660000       0.93990000
H        0.53130000      -0.41300000       0.85830000
H       -0.99780000      -0.42730000      -0.00670000
H        0.21850000      -0.15720000      -2.17840000
H        1.76220000      -0.14280000      -1.30520000
H        0.87430000      -2.16850000      -3.29980000
H        2.41360000      -2.15390000      -2.42950000
H        1.31310000      -6.21480000      -2.21110000
