20
Properties=species:S:1:pos:R:3 gdb_98271=T pbc="F F F"
C       -0.17020000       1.42580000       0.24920000
N       -0.23200000      -0.00960000       0.46360000
C        0.83110000      -0.69230000       0.94980000
O        1.92280000      -0.19200000       1.18910000
C        0.65510000      -2.19800000       1.23300000
O        0.94710000      -2.39670000       2.61270000
C       -0.72030000      -2.81390000       0.96570000
C       -0.74420000      -4.31530000       1.25100000
O       -1.72330000      -2.12590000       1.71930000
H        0.86150000       1.69450000       0.02150000
H       -0.81530000       1.70380000      -0.58840000
H       -0.48290000       1.98890000       1.13750000
H       -1.13620000      -0.44040000       0.60720000
H        1.39960000      -2.70960000       0.60220000
H        1.68810000      -1.80590000       2.80540000
H       -0.97500000      -2.64120000      -0.08640000
H       -0.44730000      -4.51370000       2.28410000
H       -1.75240000      -4.70490000       1.09020000
H       -0.05390000      -4.84910000       0.58960000
H       -1.37880000      -2.07210000       2.62100000
