20
Properties=species:S:1:pos:R:3 gdb_6546=T pbc="F F F"
C        0.26170000       1.45310000      -0.02240000
C        0.02280000      -0.07010000      -0.00580000
C        0.47160000      -0.65560000       1.33280000
O       -1.37700000      -0.33290000      -0.09930000
C        0.69970000      -0.71110000      -1.22760000
O        0.04510000      -0.33520000      -2.42700000
C        2.17920000      -0.96370000      -1.32270000
C        1.19850000      -2.12110000      -1.25610000
H        1.32420000       1.69600000       0.08350000
H       -0.10330000       1.89940000      -0.95390000
H       -0.28890000       1.92040000       0.79810000
H       -0.06740000      -0.15120000       2.13950000
H        0.23160000      -1.71940000       1.39020000
H        1.54280000      -0.51660000       1.50300000
H       -1.59240000      -0.26030000      -1.03850000
H        0.34250000       0.55040000      -2.66300000
H        2.65160000      -0.76370000      -2.27840000
H        2.80370000      -0.76710000      -0.45840000
H        1.16230000      -2.71510000      -0.35190000
H        1.01640000      -2.67030000      -2.17220000
