17
Properties=species:S:1:pos:R:3 gdb_28499=T pbc="F F F"
C       -0.08090000       1.48990000       0.02630000
C       -0.02820000      -0.01330000      -0.01040000
N       -0.05480000      -0.61080000      -1.20670000
C       -0.00720000      -1.94210000      -1.21530000
C        0.06690000      -2.69100000      -0.04730000
O        0.11220000      -4.04820000      -0.13770000
C        0.09000000      -1.98250000       1.16170000
C        0.16900000      -2.69630000       2.48550000
N        0.04210000      -0.65010000       1.16580000
H        0.80570000       1.89260000       0.52660000
H       -0.13670000       1.88900000      -0.98670000
H       -0.95050000       1.82930000       0.59840000
H       -0.02780000      -2.44590000      -2.17910000
H        0.16140000      -4.42850000       0.74520000
H        1.08110000      -3.30220000       2.56530000
H        0.17490000      -1.96070000       3.29010000
H       -0.68780000      -3.36600000       2.63650000
