20
Properties=species:S:1:pos:R:3 gdb_62832=T pbc="F F F"
C       -0.14850000       1.38610000       0.57390000
C       -0.01460000      -0.02230000      -0.00750000
C       -1.39830000      -0.55920000      -0.37070000
C        1.13120000      -0.27310000      -1.00980000
N        2.13660000       0.02460000       0.13220000
C        1.06530000      -0.95350000       0.69160000
C        0.60240000      -2.22900000       1.42300000
O        0.26690000      -2.78010000       0.08910000
C        1.20320000      -1.79710000      -0.51190000
H        0.81100000       1.79240000       0.88980000
H       -0.58430000       2.06220000      -0.17080000
H       -0.82990000       1.37410000       1.43240000
H       -1.91810000       0.18660000      -0.98320000
H       -1.37660000      -1.50210000      -0.91280000
H       -2.00370000      -0.70500000       0.53140000
H        1.30190000       0.17030000      -1.99650000
H        2.99560000      -0.51000000      -0.03640000
H        1.38790000      -2.82400000       1.90290000
H       -0.27970000      -2.15560000       2.06520000
H        2.15090000      -2.29780000      -0.73630000
