19
Properties=species:S:1:pos:R:3 gdb_92928=T pbc="F F F"
C        0.00080000       1.57070000      -0.07630000
C        0.02180000       0.05130000      -0.10520000
C        0.84520000      -0.53250000      -1.25720000
C        1.02900000      -2.01380000      -1.06590000
C        0.87480000      -2.58240000       0.12610000
C        0.55940000      -1.77190000       1.35510000
O        0.56010000      -0.37470000       1.15150000
C       -0.76390000      -2.22630000       1.99250000
O       -0.99880000      -3.35770000       2.32220000
H        1.01480000       1.96240000       0.04990000
H       -0.41250000       1.96600000      -1.00900000
H       -0.61050000       1.92950000       0.75590000
H       -1.00980000      -0.32760000      -0.20010000
H        0.33630000      -0.33150000      -2.20790000
H        1.81810000      -0.02420000      -1.31330000
H        1.28130000      -2.61800000      -1.93280000
H        0.95600000      -3.65320000       0.27820000
H        1.33070000      -1.96230000       2.11680000
H       -1.48730000      -1.39260000       2.14830000
