20
Properties=species:S:1:pos:R:3 gdb_76311=T pbc="F F F"
C        0.75260000       1.56990000      -0.03540000
C        0.14530000       0.17320000       0.03160000
C        0.77300000      -0.89070000      -0.92840000
O        1.51260000      -0.46470000      -2.04060000
C        1.51100000      -1.57050000       0.27190000
C        3.01100000      -1.31370000       0.36200000
C        0.59370000      -0.73250000       1.23890000
C        1.21900000      -0.08580000       2.37840000
N        1.73250000       0.43920000       3.27240000
H        1.83780000       1.57010000       0.10970000
H        0.53920000       2.02390000      -1.00760000
H        0.33140000       2.21280000       0.74270000
H       -0.94170000       0.25360000      -0.05190000
H        0.00220000      -1.55050000      -1.33550000
H        2.21250000       0.12480000      -1.74180000
H        1.32910000      -2.64580000       0.34760000
H        3.26170000      -0.24800000       0.36020000
H        3.42040000      -1.73140000       1.28610000
H        3.52210000      -1.78480000      -0.48280000
H       -0.24120000      -1.33610000       1.60390000
