17
Properties=species:S:1:pos:R:3 gdb_12236=T pbc="F F F"
C       -0.28190000       1.54740000       0.19590000
C       -0.08320000       0.04750000       0.00700000
C        0.53010000      -0.53290000      -1.29670000
C        1.13910000       0.38680000      -2.33660000
O        1.92600000      -0.34840000      -3.25370000
O        1.60510000      -1.15910000      -0.50350000
C        1.12540000      -0.59350000       0.66350000
N        1.57840000      -0.62200000       1.83100000
H        0.61870000       2.11650000      -0.04800000
H       -1.10350000       1.91750000      -0.42500000
H       -0.52750000       1.75200000       1.24140000
H       -0.99860000      -0.48540000       0.28120000
H       -0.05880000      -1.31420000      -1.78550000
H        0.34550000       0.87180000      -2.91530000
H        1.72730000       1.17480000      -1.84350000
H        2.58950000      -0.81730000      -2.73410000
H        2.44340000      -1.16240000       1.88660000
