21
Properties=species:S:1:pos:R:3 gdb_86164=T pbc="F F F"
C       -0.11970000       1.59530000      -0.01690000
C        0.02160000       0.06950000       0.02250000
C        0.80700000      -0.52820000      -1.17280000
C        1.57680000      -1.75380000      -0.62270000
C        2.93450000      -1.99320000      -1.28660000
C        1.64190000      -1.44430000       0.87430000
C        0.79460000      -0.45850000       1.20630000
C        2.46500000      -2.17980000       1.76070000
C        3.18300000      -2.83340000       2.47580000
H        0.86390000       2.07740000      -0.02760000
H       -0.66250000       1.91480000      -0.91280000
H       -0.66780000       1.96760000       0.85510000
H       -0.99330000      -0.35960000       0.05100000
H        0.16430000      -0.77950000      -2.02120000
H        1.53290000       0.21580000      -1.52490000
H        0.97110000      -2.66340000      -0.75090000
H        3.57960000      -1.11380000      -1.18250000
H        3.45120000      -2.84430000      -0.83340000
H        2.81260000      -2.19870000      -2.35520000
H        0.63980000      -0.09840000       2.21770000
H        3.80870000      -3.39940000       3.12010000
