16
Properties=species:S:1:pos:R:3 gdb_55673=T pbc="F F F"
N       -0.25120000       1.40790000      -0.19770000
C       -0.01170000       0.07930000      -0.37330000
O        1.02290000      -0.34240000      -0.85600000
C       -1.14440000      -0.84180000       0.08500000
C       -0.70610000      -2.30060000       0.12500000
C       -0.22860000      -2.78410000       1.48950000
O        0.03600000      -3.93110000       1.73650000
C       -1.74510000      -3.26990000      -0.43210000
O       -2.73090000      -2.92730000      -1.03080000
H        0.41380000       2.06330000      -0.57520000
H       -1.14980000       1.75160000       0.09360000
H       -1.52230000      -0.50940000       1.05980000
H       -1.98040000      -0.74970000      -0.61840000
H        0.17780000      -2.39990000      -0.52960000
H       -0.14450000      -1.98850000       2.26450000
H       -1.50950000      -4.33460000      -0.24170000
