22
Properties=species:S:1:pos:R:3 gdb_91036=T pbc="F F F"
C       -0.28070000       1.55680000      -0.02230000
C        0.04700000       0.06950000      -0.02070000
C        1.19360000      -0.46850000      -0.94350000
C        1.81850000      -1.22270000       0.26780000
C        2.91920000      -0.49720000       1.07390000
N        2.67260000       0.95780000       0.95240000
C        1.89620000       0.16410000       1.93590000
C        0.74450000      -0.59110000       1.21760000
C       -0.09060000      -1.43830000       2.15360000
H        0.61880000       2.15530000       0.13280000
H       -0.73120000       1.85250000      -0.97690000
H       -1.00100000       1.80200000       0.76760000
H       -0.87230000      -0.49500000      -0.21980000
H        0.85390000      -1.12160000      -1.75100000
H        1.83560000       0.31060000      -1.35730000
H        1.92610000      -2.30600000       0.20220000
H        3.91120000      -0.86150000       1.31450000
H        3.40960000       1.43150000       1.47370000
H        1.92650000       0.42630000       2.98820000
H       -0.76460000      -0.81680000       2.75710000
H       -0.70600000      -2.15320000       1.59700000
H        0.54020000      -2.00790000       2.84670000
