18
Properties=species:S:1:pos:R:3 gdb_30941=T pbc="F F F"
C       -0.31300000       1.63830000      -0.12490000
C        0.04260000       0.14980000       0.04230000
C        0.78000000      -0.42470000      -1.12030000
C        2.02700000      -0.91050000      -1.24570000
C        3.16080000      -1.08910000      -0.30730000
O        2.23630000      -1.31830000      -2.55680000
C        1.08840000      -1.08570000      -3.28820000
O        0.95670000      -1.33670000      -4.45550000
N        0.20140000      -0.53330000      -2.39520000
H        0.59020000       2.24330000      -0.24470000
H       -0.94260000       1.80490000      -1.00500000
H       -0.86010000       2.00400000       0.74880000
H        0.65480000       0.01600000       0.93910000
H       -0.87780000      -0.42570000       0.21270000
H        3.46080000      -2.14150000      -0.24520000
H        4.03880000      -0.51860000      -0.63150000
H        2.88480000      -0.75210000       0.69420000
H       -0.73180000      -0.27420000      -2.66110000
