19
Properties=species:S:1:pos:R:3 gdb_32989=T pbc="F F F"
C       -0.03350000       1.54300000       0.03780000
C        0.01010000       0.01440000      -0.01140000
C        0.72640000      -0.51900000      -1.26790000
C        0.75440000      -2.02330000      -1.29040000
N        1.79430000      -2.62640000      -0.69610000
C        1.79010000      -3.95960000      -0.69250000
C        0.76930000      -4.70580000      -1.26850000
C       -0.26160000      -3.98050000      -1.85320000
N       -0.28120000      -2.64750000      -1.87030000
H        0.97600000       1.96860000       0.04050000
H       -0.56330000       1.95280000      -0.82920000
H       -0.54600000       1.89510000       0.93850000
H        0.52170000      -0.37420000       0.87720000
H       -1.00910000      -0.38990000       0.01120000
H        0.20650000      -0.16290000      -2.16250000
H        1.75530000      -0.14710000      -1.28620000
H        2.63730000      -4.44470000      -0.21160000
H        0.77760000      -5.78900000      -1.26360000
H       -1.10260000      -4.48280000      -2.32740000
