18
Properties=species:S:1:pos:R:3 gdb_69615=T pbc="F F F"
C       -0.05430000       1.52790000       0.04070000
C        0.08750000       0.04030000       0.01160000
N       -0.85400000      -0.87940000       0.70380000
C        0.60130000      -0.92640000       0.99840000
C        1.32130000      -1.75390000      -0.11750000
C        0.35220000      -2.19500000      -1.19870000
C        0.75720000      -0.75490000      -1.15320000
C        2.64580000      -2.24240000       0.01710000
C        3.77150000      -2.64650000       0.16220000
H        0.88040000       2.01600000      -0.25630000
H       -0.84000000       1.86650000      -0.64530000
H       -0.30990000       1.87730000       1.04690000
H       -1.29050000      -0.34910000       1.45800000
H        0.98940000      -0.78360000       1.99880000
H        0.81800000      -2.77290000      -1.98960000
H       -0.65120000      -2.49170000      -0.92230000
H        1.31770000      -0.27300000      -1.94370000
H        4.76210000      -3.00860000       0.28160000
