20
Properties=species:S:1:pos:R:3 gdb_90245=T pbc="F F F"
C       -0.13160000       1.47990000       0.00460000
N        0.10260000       0.04840000       0.00430000
C        1.06520000      -0.45340000      -1.00760000
C        2.03190000      -1.29010000      -0.12570000
C        2.16970000      -2.73060000      -0.69280000
O        0.82580000      -3.02850000      -0.14430000
C        1.10220000      -1.95880000       0.83150000
C        0.68810000      -0.49920000       1.21250000
C        2.30140000      -0.27060000       1.04260000
H        0.77860000       2.09220000       0.14870000
H       -0.58240000       1.77310000      -0.94870000
H       -0.84000000       1.73710000       0.79900000
H        0.55830000      -1.05120000      -1.76930000
H        1.60570000       0.36570000      -1.50070000
H        2.19800000      -2.86120000      -1.77770000
H        2.93080000      -3.35100000      -0.20590000
H        1.60160000      -2.42340000       1.68950000
H        0.15680000      -0.23520000       2.12890000
H        2.89570000      -0.66140000       1.86760000
H        2.61400000       0.74470000       0.78580000
