17
Properties=species:S:1:pos:R:3 gdb_3997=T pbc="F F F"
C       -0.15430000       1.54100000       0.16760000
C        0.00560000       0.02960000       0.01860000
O       -1.24210000      -0.63480000       0.10290000
C        0.81220000      -0.43910000      -1.23500000
C        2.00310000      -0.87670000      -0.32240000
C        1.12240000      -0.57680000       0.86980000
N        1.12820000      -0.78740000       2.11660000
O        2.30710000      -1.43500000       2.52740000
H        0.80240000       2.05990000       0.04970000
H       -0.85210000       1.91300000      -0.58890000
H       -0.54780000       1.78710000       1.15970000
H       -1.52850000      -0.59510000       1.02240000
H        0.31300000      -1.27710000      -1.72250000
H        1.02950000       0.33620000      -1.97160000
H        2.33280000      -1.91530000      -0.40630000
H        2.88750000      -0.23510000      -0.38390000
H        2.16280000      -1.54200000       3.47390000
