19
Properties=species:S:1:pos:R:3 gdb_74965=T pbc="F F F"
C       -0.07400000       1.49730000       0.04450000
C       -0.02400000       0.00640000      -0.00750000
C       -0.04310000      -0.80160000      -1.08490000
C        0.04630000      -2.24060000      -0.62930000
C        1.46510000      -2.48060000      -0.02050000
C        1.48880000      -1.54650000       1.23490000
C        0.07860000      -0.87440000       1.22540000
C       -0.75450000      -2.06380000       0.68570000
O       -1.70160000      -2.63930000       1.12930000
H        0.82710000       1.91320000       0.51310000
H       -0.16460000       1.92680000      -0.95740000
H       -0.92540000       1.84400000       0.64330000
H       -0.09930000      -0.49050000      -2.12120000
H       -0.30660000      -3.00610000      -1.31770000
H        1.58740000      -3.53010000       0.26360000
H        2.24930000      -2.23290000      -0.73860000
H        1.62950000      -2.12120000       2.15500000
H        2.28370000      -0.79900000       1.18330000
H       -0.24160000      -0.43890000       2.17080000
