17
Properties=species:S:1:pos:R:3 gdb_20109=T pbc="F F F"
C       -0.44260000       1.25660000      -0.30840000
O        0.78420000       1.35630000       0.41800000
C        0.27110000       0.05040000       0.13050000
C       -0.19930000      -0.73750000       1.29900000
C       -1.40310000      -1.59340000       1.26820000
N       -1.44460000      -0.36940000       2.09140000
C       -0.68410000      -0.70790000       3.34910000
C        0.62230000      -0.99460000       2.56490000
H       -1.33120000       1.55740000       0.24170000
H       -0.39420000       1.55990000      -1.35330000
H        0.86070000      -0.50220000      -0.60370000
H       -2.04180000      -1.53330000       0.39200000
H       -1.39560000      -2.56450000       1.76070000
H       -0.62880000       0.16830000       3.99670000
H       -1.12440000      -1.54020000       3.90780000
H        1.08230000      -1.98190000       2.66290000
H        1.37980000      -0.22570000       2.72310000
