19
Properties=species:S:1:pos:R:3 gdb_91624=T pbc="F F F"
C       -0.18970000       1.53300000      -0.03760000
C        0.03740000       0.03250000       0.02590000
O        0.85010000      -0.41620000      -1.07330000
C        1.88080000      -1.21260000      -0.43810000
O        1.21150000      -1.80530000       0.65550000
C        0.83770000      -0.54650000       1.24750000
C        2.17380000       0.19200000       1.31940000
C        2.52210000       1.22900000       2.33250000
C        2.83960000      -0.24520000       0.24550000
H        0.75810000       2.07630000      -0.02020000
H       -0.70900000       1.79190000      -0.96470000
H       -0.81110000       1.86780000       0.80060000
H       -0.92180000      -0.49880000      -0.01680000
H        2.25840000      -1.94930000      -1.14400000
H        0.27000000      -0.68840000       2.16620000
H        2.49990000       0.81340000       3.34790000
H        3.51920000       1.64060000       2.15450000
H        1.80650000       2.06030000       2.32000000
H        3.79060000       0.08810000      -0.14690000
