21
Properties=species:S:1:pos:R:3 gdb_39274=T pbc="F F F"
C        0.04500000       1.60410000       0.06200000
C        1.54940000       2.03940000      -0.09460000
C        2.17180000       0.68560000       0.17720000
C        1.35510000      -0.28180000      -0.67180000
C        0.01710000       0.02540000       0.02440000
C        0.04100000      -0.67510000       1.42370000
C        1.49400000      -0.93240000       1.95140000
C        2.29790000       0.29730000       1.58160000
O        3.44130000       0.32100000       0.68910000
H       -0.37610000       1.98210000       0.99820000
H       -0.56400000       2.00970000      -0.75060000
H        1.75630000       2.41080000      -1.10360000
H        1.84780000       2.80720000       0.62180000
H        1.35320000       0.01520000      -1.72590000
H        1.67950000      -1.32030000      -0.60840000
H       -0.85950000      -0.31760000      -0.53040000
H       -0.50580000      -0.06240000       2.15020000
H       -0.49380000      -1.62960000       1.36580000
H        1.48370000      -1.11230000       3.03000000
H        1.92230000      -1.82360000       1.48620000
H        2.34130000       1.09020000       2.32780000
