27
Properties=species:S:1:pos:R:3 gdb_86180=T pbc="F F F"
C       -0.19060000       1.54780000       0.01450000
C        0.06720000       0.04250000      -0.01420000
C        0.96440000      -0.44500000      -1.16100000
C        1.33530000      -1.87300000      -0.73810000
C        2.43010000      -2.52670000      -1.58200000
C        1.60400000      -1.76680000       0.80660000
C        1.11610000      -3.03270000       1.52710000
C        3.09420000      -1.55200000       1.12690000
C        0.78370000      -0.50420000       1.24220000
H        0.75080000       2.10350000       0.10070000
H       -0.69420000       1.88470000      -0.89820000
H       -0.82120000       1.83050000       0.86460000
H       -0.89990000      -0.47050000      -0.11320000
H        0.47510000      -0.40380000      -2.14030000
H        1.86680000       0.18040000      -1.22510000
H        0.42720000      -2.48250000      -0.85370000
H        3.35250000      -1.93710000      -1.58280000
H        2.67630000      -3.53170000      -1.22160000
H        2.10340000      -2.62490000      -2.62280000
H        1.62100000      -3.92840000       1.14640000
H        1.31140000      -2.97750000       2.60410000
H        0.03830000      -3.17420000       1.39020000
H        3.50420000      -0.68670000       0.59480000
H        3.22740000      -1.36940000       2.19900000
H        3.69860000      -2.42590000       0.86310000
H        1.46210000       0.26280000       1.63520000
H        0.07800000      -0.73320000       2.04730000
