16
Properties=species:S:1:pos:R:3 gdb_39742=T pbc="F F F"
C       -0.28160000       1.37680000      -0.29280000
O        1.02530000       0.89110000       0.10620000
C        0.00080000      -0.03930000      -0.10850000
C       -0.31110000      -1.05230000       1.04690000
C        0.23070000      -2.17250000       0.24430000
N       -1.11010000      -2.31830000       0.77240000
C       -1.98700000      -2.39610000      -0.42720000
C       -1.26820000      -1.51980000      -1.44450000
C       -0.01380000      -1.28100000      -1.00120000
H       -0.82190000       1.93210000       0.47230000
H       -0.32580000       1.79660000      -1.29640000
H       -0.14980000      -0.82870000       2.09570000
H        1.04030000      -2.86280000       0.44490000
H       -2.10420000      -3.45900000      -0.67100000
H       -2.98420000      -1.98390000      -0.23430000
H       -1.82500000      -0.80950000      -2.04910000
