19
Properties=species:S:1:pos:R:3 gdb_35713=T pbc="F F F"
N       -0.47570000      -0.98050000      -0.70350000
C       -0.28010000       0.09580000      -0.32830000
C       -0.03010000       1.44750000       0.14020000
C        0.24540000       1.67840000       1.65770000
C        1.34120000       2.70340000       1.26740000
C        1.35650000       2.12910000      -0.18020000
C        2.47980000       1.17870000      -0.53560000
C        3.89350000       1.52890000      -0.25510000
N        3.24750000       0.41460000       0.45960000
H       -0.84720000       2.08820000      -0.20390000
H       -0.59700000       2.03350000       2.25310000
H        0.65600000       0.78240000       2.12720000
H        0.97480000       3.73210000       1.28760000
H        2.27620000       2.66950000       1.83210000
H        1.28220000       2.87690000      -0.97530000
H        2.27490000       0.59710000      -1.43290000
H        4.67650000       1.23930000      -0.94980000
H        4.09060000       2.45100000       0.28750000
H        3.00920000       0.70470000       1.40470000
