15
Properties=species:S:1:pos:R:3 gdb_69224=T pbc="F F F"
C       -0.07910000       1.52870000       0.04210000
C        0.14870000       0.04990000       0.01470000
O       -0.70420000      -0.79770000       0.80810000
C        0.70710000      -0.80970000       1.07240000
C        1.39450000      -1.96980000       0.41100000
N        2.08020000      -2.84000000       1.02480000
N        1.12870000      -1.82780000      -0.95620000
C        0.47010000      -0.65190000      -1.30110000
O        0.22570000      -0.27740000      -2.41940000
H        0.81810000       2.06330000      -0.28360000
H       -0.89200000       1.79290000      -0.64000000
H       -0.34160000       1.85180000       1.05170000
H        1.03030000      -0.47090000       2.04960000
H        2.47540000      -3.53750000       0.39080000
H        1.37980000      -2.51240000      -1.65420000
