25
Properties=species:S:1:pos:R:3 gdb_64207=T pbc="F F F"
C       -0.13990000       1.53000000      -0.01950000
C       -0.00840000       0.00450000       0.00820000
C       -1.37260000      -0.65330000      -0.17670000
C        1.13590000      -0.49060000      -0.93370000
C        2.09150000      -0.55120000       0.28570000
C        0.84970000      -0.52520000       1.21980000
C        0.91330000       0.23670000       2.51500000
C       -0.08380000      -0.03190000       3.61840000
C        1.35390000      -0.45540000       3.78340000
H        0.83010000       2.02930000       0.07440000
H       -0.58520000       1.85580000      -0.96660000
H       -0.78060000       1.88990000       0.79280000
H       -1.82860000      -0.36020000      -1.13030000
H       -1.29120000      -1.74570000      -0.16890000
H       -2.06510000      -0.36270000       0.62230000
H        0.92530000      -1.48510000      -1.33890000
H        1.41380000       0.16780000      -1.76160000
H        2.76100000      -1.41100000       0.36470000
H        2.69240000       0.35800000       0.38530000
H        0.53810000      -1.55560000       1.43410000
H        1.23500000       1.27030000       2.41790000
H       -0.44530000       0.80550000       4.20530000
H       -0.82380000      -0.80840000       3.45340000
H        1.57970000      -1.51560000       3.72880000
H        1.97560000       0.09370000       4.48200000
