17
Properties=species:S:1:pos:R:3 gdb_125863=T pbc="F F F"
C       -0.08820000       1.58470000      -0.01880000
C        0.00750000       0.04850000       0.01000000
C        0.86680000      -0.53300000      -1.11260000
C        1.86500000      -1.26540000      -0.60460000
N        1.76690000      -1.24970000       0.79580000
N        2.49760000      -1.79870000       1.77810000
C        1.87090000      -1.37990000       2.88210000
C        0.74340000      -0.56430000       2.60130000
C        0.70980000      -0.50440000       1.22390000
H        0.90600000       2.03510000       0.04370000
H       -0.56390000       1.92390000      -0.94400000
H       -0.68370000       1.94920000       0.82340000
H       -1.00990000      -0.36170000      -0.06040000
H        0.67970000      -0.35690000      -2.16160000
H        2.66110000      -1.81840000      -1.07880000
H        2.24760000      -1.67760000       3.85000000
H        0.07130000      -0.10510000       3.30750000
