19
Properties=species:S:1:pos:R:3 gdb_96908=T pbc="F F F"
C       -0.13270000       1.36170000      -0.44250000
N       -0.09400000      -0.08840000      -0.33240000
C       -1.03450000      -0.66890000       0.27590000
N       -2.21800000      -0.30060000       0.92230000
C       -2.76800000      -1.65560000       0.81360000
C       -3.80940000      -2.28210000       1.67230000
C       -4.05690000      -2.05840000       0.18290000
C       -1.35930000      -2.15670000       0.40410000
O       -1.23350000      -2.92190000      -0.76090000
H        0.45200000       1.67610000      -1.31140000
H       -1.14950000       1.77180000      -0.55370000
H        0.31730000       1.83020000       0.44260000
H       -2.73250000       0.55240000       0.74590000
H       -3.64530000      -3.29570000       2.02430000
H       -4.34700000      -1.64740000       2.36970000
H       -4.76450000      -1.28350000      -0.09600000
H       -4.03360000      -2.91280000      -0.48540000
H       -0.84170000      -2.65490000       1.23230000
H       -0.84560000      -2.34690000      -1.43140000
