18
Properties=species:S:1:pos:R:3 gdb_40533=T pbc="F F F"
C       -0.04370000       1.49780000       0.01940000
C        1.26110000       0.77130000      -0.05900000
C       -0.02300000      -0.02190000       0.07550000
C       -0.31000000      -0.68770000       1.35450000
N        0.11710000      -0.35760000       2.51320000
C       -0.49210000      -1.26840000       3.44960000
C       -2.00720000      -1.23560000       3.52770000
C       -1.33310000      -2.21000000       2.60580000
O       -1.13470000      -1.77810000       1.26970000
H       -0.28100000       2.00550000       0.94680000
H       -0.44440000       1.95580000      -0.87790000
H        1.77490000       0.72170000      -1.01220000
H        1.89950000       0.78880000       0.81600000
H       -0.38580000      -0.56040000      -0.79100000
H        0.09590000      -1.55500000       4.31300000
H       -2.46120000      -1.66130000       4.41600000
H       -2.52550000      -0.38210000       3.10310000
H       -1.43020000      -3.28390000       2.69520000
