18
Properties=species:S:1:pos:R:3 gdb_97165=T pbc="F F F"
C       -0.21240000       1.37400000       0.23010000
N       -0.06270000      -0.06820000       0.12300000
C        0.64600000      -0.68230000       0.96100000
O        1.31910000      -0.10940000       2.01570000
C        2.34420000      -0.99290000       2.49810000
C        1.95890000      -2.40380000       2.04660000
C        0.84230000      -3.10600000       2.84520000
O       -0.12950000      -2.84840000       1.80930000
C        0.85680000      -2.17850000       0.98740000
H        0.56900000       1.85950000       0.82620000
H       -0.22150000       1.80440000      -0.77610000
H       -1.18290000       1.60520000       0.68610000
H        3.30640000      -0.68480000       2.07070000
H        2.39490000      -0.88300000       3.58520000
H        2.81760000      -3.01820000       1.78030000
H        0.98550000      -4.18080000       3.00650000
H        0.57020000      -2.63250000       3.79710000
H        0.92780000      -2.61310000      -0.01110000
