12
Properties=species:S:1:pos:R:3 gdb_129151=T pbc="F F F"
N       -0.05220000       0.73090000       0.35270000
C       -0.63580000      -0.15250000      -0.31690000
N        3.20970000      -0.53650000      -0.22010000
N        3.98160000      -1.21050000      -0.61570000
O        0.00620000      -1.19980000      -0.98450000
C       -0.96950000      -1.94150000      -1.59270000
C       -2.22580000      -1.50640000      -1.40890000
C       -2.14120000      -0.30910000      -0.56830000
O       -3.00090000       0.42150000      -0.14150000
H        0.96160000       0.59510000       0.35420000
H       -0.59310000      -2.79060000      -2.14750000
H       -3.12830000      -1.94660000      -1.80050000
