19
Properties=species:S:1:pos:R:3 gdb_125674=T pbc="F F F"
C       -0.01330000       1.47760000      -0.09340000
C       -0.00490000      -0.01610000       0.00190000
N        0.00280000      -0.76110000      -1.10230000
N        0.01950000      -2.03190000      -0.65470000
C        0.02730000      -2.11590000       0.69670000
C        0.01110000      -0.82120000       1.17600000
C       -0.01000000      -0.37040000       2.60560000
C       -1.42660000      -0.12980000       3.13330000
O       -1.31770000       0.30910000       4.47830000
H        0.83240000       1.91870000       0.44620000
H        0.05080000       1.78100000      -1.14040000
H       -0.92640000       1.90860000       0.33280000
H        0.04040000      -2.78360000      -1.32160000
H        0.05160000      -3.06600000       1.20820000
H        0.47230000      -1.11170000       3.25190000
H        0.55650000       0.56040000       2.72280000
H       -1.93420000       0.61950000       2.50520000
H       -2.00740000      -1.06280000       3.05810000
H       -2.20330000       0.47470000       4.81420000
