27
Properties=species:S:1:pos:R:3 gdb_118236=T pbc="F F F"
C       -0.01850000       1.60230000      -0.08410000
C        0.02570000       0.07940000       0.07540000
C       -1.36700000      -0.56130000       0.03390000
C       -1.38820000      -2.10060000       0.09020000
C       -0.84260000      -2.63940000       1.42040000
C       -2.81160000      -2.61950000      -0.20160000
C       -2.92540000      -4.12140000      -0.37230000
C       -3.30150000      -5.02440000       0.77830000
C       -4.27810000      -4.78820000      -0.34710000
H        0.98530000       2.03790000      -0.05400000
H       -0.47730000       1.88760000      -1.03750000
H       -0.60670000       2.06690000       0.71530000
H        0.64590000      -0.35360000      -0.72110000
H        0.52680000      -0.16790000       1.01870000
H       -1.97360000      -0.16390000       0.86130000
H       -1.87000000      -0.23790000      -0.88810000
H       -0.73560000      -2.46930000      -0.71650000
H       -0.86050000      -3.73190000       1.44310000
H        0.18950000      -2.32130000       1.59360000
H       -1.44700000      -2.27920000       2.26240000
H       -3.48850000      -2.29460000       0.60200000
H       -3.17490000      -2.13200000      -1.11710000
H       -2.21460000      -4.54050000      -1.08190000
H       -2.82720000      -5.99700000       0.85400000
H       -3.51430000      -4.56080000       1.73610000
H       -5.14300000      -4.16490000      -0.14320000
H       -4.47040000      -5.59800000      -1.04220000
