18
Properties=species:S:1:pos:R:3 gdb_73195=T pbc="F F F"
C       -0.06500000       1.28080000      -0.31030000
C        0.11170000      -0.16750000       0.05790000
N       -1.11960000      -0.98950000       0.24760000
C       -0.68850000      -1.39560000       1.61800000
C        0.69650000      -0.77340000       1.36410000
O        1.58500000      -1.62300000       0.60970000
C        1.20550000      -1.01860000      -0.64770000
C        0.69600000      -2.00810000      -1.67520000
O        0.55000000      -1.72180000      -2.83570000
H        0.89560000       1.80360000      -0.33850000
H       -0.52170000       1.36480000      -1.30340000
H       -0.71410000       1.79410000       0.40770000
H       -1.97400000      -0.44550000       0.22630000
H       -1.23010000      -0.89190000       2.42870000
H       -0.70030000      -2.47570000       1.79230000
H        1.20720000      -0.23840000       2.16750000
H        2.02470000      -0.42780000      -1.07770000
H        0.45920000      -3.01280000      -1.26760000
