24
Properties=species:S:1:pos:R:3 gdb_13498=T pbc="F F F"
C       -0.25210000       1.51640000      -0.88600000
C       -0.07040000       0.09830000      -0.32460000
C        0.64560000       0.14130000       1.03340000
C       -1.41580000      -0.62050000      -0.21950000
C       -2.28840000      -0.83120000      -1.48840000
C       -2.73630000      -2.19710000      -0.90560000
C       -1.50490000      -2.16520000       0.04820000
C       -0.33560000      -3.00640000      -0.46190000
H        0.71170000       2.02620000      -0.98990000
H       -0.73110000       1.50210000      -1.87000000
H       -0.87730000       2.12320000      -0.21970000
H        0.56400000      -0.45930000      -1.02790000
H        0.06240000       0.71880000       1.76100000
H        0.79230000      -0.86050000       1.44900000
H        1.62920000       0.61520000       0.94740000
H       -2.02110000      -0.10740000       0.54040000
H       -3.06210000      -0.09010000      -1.70330000
H       -1.67330000      -0.95330000      -2.38610000
H       -3.68180000      -2.11870000      -0.36160000
H       -2.80270000      -3.04350000      -1.59520000
H       -1.71350000      -2.43570000       1.08810000
H       -0.11150000      -2.79930000      -1.51420000
H        0.57970000      -2.83060000       0.11240000
H       -0.57590000      -4.07250000      -0.38430000
