21
Properties=species:S:1:pos:R:3 gdb_65778=T pbc="F F F"
C       -0.41280000       1.68710000       0.08470000
C        0.14070000       0.26940000      -0.01900000
C        1.14050000       0.02400000      -1.16420000
C        1.86500000      -1.29000000      -0.79280000
C        1.70970000      -1.43680000       0.75030000
C        0.93940000      -0.18170000       1.21220000
O       -0.95920000      -0.69950000      -0.08750000
C       -1.80220000      -0.68350000      -1.12930000
O       -2.71650000      -1.45050000      -1.22800000
H        0.40130000       2.39280000       0.27360000
H       -0.91810000       2.00320000      -0.83250000
H       -1.12780000       1.75720000       0.90960000
H        0.66910000      -0.00500000      -2.15000000
H        1.84350000       0.86470000      -1.17610000
H        1.40460000      -2.13920000      -1.30390000
H        2.91200000      -1.26460000      -1.10500000
H        1.13740000      -2.33630000       0.98760000
H        2.67320000      -1.52610000       1.25830000
H        1.63110000       0.62280000       1.48560000
H        0.28340000      -0.36310000       2.06680000
H       -1.57710000       0.09550000      -1.87940000
