19
Properties=species:S:1:pos:R:3 gdb_32071=T pbc="F F F"
C        0.17250000       1.46470000      -0.10870000
C        0.07890000      -0.04050000      -0.04030000
C        0.19920000      -0.81950000      -1.19230000
C        0.09240000      -2.21210000      -1.14800000
C        0.20160000      -3.02820000      -2.42050000
O        1.07600000      -2.46800000      -3.38760000
C       -0.13150000      -2.83480000       0.07990000
C       -0.25650000      -2.07210000       1.23840000
C       -0.15050000      -0.68670000       1.17910000
H        0.65480000       1.79320000      -1.03330000
H       -0.82220000       1.92600000      -0.07630000
H        0.74100000       1.86960000       0.73460000
H        0.38720000      -0.34390000      -2.14990000
H        0.48570000      -4.06240000      -2.17040000
H       -0.77430000      -3.08180000      -2.91870000
H        1.93790000      -2.36360000      -2.97030000
H       -0.20170000      -3.91770000       0.13100000
H       -0.42510000      -2.56120000       2.19250000
H       -0.23980000      -0.09860000       2.08800000
