21
Properties=species:S:1:pos:R:3 gdb_90077=T pbc="F F F"
C       -0.17870000       1.57130000      -0.01380000
C       -0.00050000       0.05780000       0.00630000
C        0.94710000      -0.57710000      -1.10200000
C        2.03150000      -0.72420000      -0.00650000
C        3.05990000      -1.62920000       0.73790000
C        3.02700000      -0.36860000       1.69210000
C        2.94150000       0.47800000       0.41460000
O        1.67290000      -0.24400000       2.21480000
C        0.94840000      -0.65940000       1.04650000
H        0.75540000       2.11530000      -0.16380000
H       -0.85380000       1.85580000      -0.82850000
H       -0.62280000       1.92090000       0.92400000
H       -0.99440000      -0.39900000       0.02470000
H        0.55850000      -1.52890000      -1.47290000
H        1.20200000       0.05690000      -1.95490000
H        2.70070000      -2.58550000       1.12550000
H        4.03990000      -1.73970000       0.26880000
H        3.74590000      -0.21010000       2.49400000
H        3.86480000       0.50590000      -0.16890000
H        2.52200000       1.47590000       0.52930000
H        0.49870000      -1.63850000       1.25670000
