20
Properties=species:S:1:pos:R:3 gdb_6756=T pbc="F F F"
C       -0.01330000       1.53800000      -0.05570000
C       -0.00860000      -0.00010000       0.05210000
C        0.77750000      -0.47100000       1.29180000
C       -1.37290000      -0.53090000       0.05770000
C       -2.50340000      -0.94770000       0.07930000
C       -3.85840000      -1.48560000       0.09530000
C       -3.88660000      -3.01260000      -0.03140000
O       -5.24840000      -3.40640000      -0.00340000
H        1.01210000       1.91900000      -0.10230000
H       -0.54660000       1.86780000      -0.95110000
H       -0.50590000       1.98290000       0.81450000
H        0.50360000      -0.39440000      -0.83700000
H        0.31350000      -0.09250000       2.20800000
H        0.80170000      -1.56230000       1.35120000
H        1.80800000      -0.10330000       1.25150000
H       -4.37290000      -1.20780000       1.02350000
H       -4.45140000      -1.06120000      -0.72430000
H       -3.39520000      -3.31000000      -0.96980000
H       -3.31610000      -3.45800000       0.79740000
H       -5.28730000      -4.36370000      -0.08320000
