16
Properties=species:S:1:pos:R:3 gdb_19420=T pbc="F F F"
C       -0.00580000       1.51380000      -0.04020000
N        1.24580000       0.74680000       0.05560000
C       -0.04750000       0.02880000       0.00620000
C       -0.46200000      -0.77930000       1.19050000
C       -0.99230000      -1.95010000       0.82290000
C       -1.04390000      -2.06020000      -0.66620000
N       -1.91820000      -1.01870000      -1.28940000
C       -0.45710000      -0.79850000      -1.19100000
H       -0.25570000       2.09110000       0.84590000
H       -0.26770000       1.99240000      -0.98040000
H        1.69750000       0.69870000      -0.85580000
H       -0.34770000      -0.41330000       2.20350000
H       -1.37640000      -2.71110000       1.49050000
H       -0.93770000      -3.01560000      -1.16840000
H       -2.12710000      -1.30600000      -2.24550000
H        0.13650000      -0.75880000      -2.09990000
