19
Properties=species:S:1:pos:R:3 gdb_72254=T pbc="F F F"
C       -0.00730000       1.47960000      -0.03410000
C       -0.02450000      -0.01110000       0.01390000
O        0.85030000      -0.72400000      -0.87100000
C       -0.02440000      -1.88940000      -0.77760000
C        0.56710000      -2.79670000       0.28930000
O        0.56020000      -1.98420000       1.47120000
C       -0.30790000      -0.90220000       1.22020000
C       -1.11370000      -1.06990000      -0.03880000
C       -2.59850000      -1.07820000      -0.24030000
H        0.98140000       1.85860000       0.24720000
H       -0.24020000       1.84480000      -1.03970000
H       -0.74030000       1.89420000       0.66440000
H       -0.23760000      -2.33670000      -1.75020000
H       -0.03690000      -3.70630000       0.43680000
H        1.59930000      -3.07910000       0.06240000
H       -0.73800000      -0.47190000       2.11800000
H       -3.08090000      -0.31740000       0.38180000
H       -2.86720000      -0.87370000      -1.28280000
H       -3.03250000      -2.04710000       0.03440000
