14
Properties=species:S:1:pos:R:3 gdb_28842=T pbc="F F F"
N        0.03040000       1.32400000      -0.22040000
C       -0.05040000       0.00140000       0.04910000
N       -1.24840000      -0.52130000       0.13520000
C       -1.51570000      -1.84650000       0.15890000
C       -0.73370000      -2.94540000      -0.06430000
C        0.69970000      -2.98500000      -0.24310000
O        1.32500000      -3.97410000      -0.60390000
C        1.50050000      -1.78650000       0.18210000
N        1.20630000      -0.54490000       0.27650000
H        0.91210000       1.79210000      -0.10670000
H       -0.82210000       1.85060000      -0.30340000
H       -2.57330000      -2.04570000       0.33110000
H       -1.22120000      -3.91510000      -0.09760000
H        2.53150000      -2.05950000       0.42310000
