23
Properties=species:S:1:pos:R:3 gdb_67704=T pbc="F F F"
C       -0.02500000       1.48750000      -0.00690000
C        0.00440000      -0.01870000      -0.00130000
C       -0.28740000      -0.89040000      -1.20180000
C        0.76850000      -1.98460000      -1.33950000
C        1.81620000      -1.64820000      -0.24840000
C        1.06430000      -0.80750000       0.81050000
C        0.23660000      -1.67160000       1.79120000
C       -1.07820000      -2.01190000       1.04490000
C       -1.22120000      -0.90430000       0.00390000
H        0.90980000       1.90800000      -0.39730000
H       -0.84110000       1.86250000      -0.63370000
H       -0.17230000       1.89210000       1.00200000
H       -0.68700000      -0.44190000      -2.10650000
H        0.34350000      -2.98560000      -1.19920000
H        1.21210000      -1.97570000      -2.33960000
H        2.29560000      -2.53540000       0.17880000
H        2.60990000      -1.03550000      -0.69090000
H        1.75110000      -0.14910000       1.35000000
H        0.78000000      -2.55780000       2.13570000
H        0.00000000      -1.07410000       2.67900000
H       -1.03760000      -3.00610000       0.58410000
H       -1.93550000      -2.02220000       1.72460000
H       -2.20200000      -0.46440000      -0.15030000
