16
Properties=species:S:1:pos:R:3 gdb_36218=T pbc="F F F"
N       -0.80000000       0.14530000      -1.36310000
C       -0.25290000       0.49210000      -0.40630000
C        0.44880000       0.97220000       0.78390000
C        1.64920000       1.82450000       0.44780000
N        2.77640000       1.70400000       1.04730000
C        3.66660000       2.65900000       0.42050000
C        3.96660000       2.44850000      -1.04670000
C        2.86330000       3.40000000      -0.64840000
N        1.54180000       2.84930000      -0.47530000
H       -0.25850000       1.55370000       1.38840000
H        0.78800000       0.12820000       1.38810000
H        4.40270000       3.12850000       1.06110000
H        4.87540000       2.90420000      -1.42340000
H        3.70620000       1.49430000      -1.49300000
H        2.92510000       4.46130000      -0.85730000
H        0.90210000       2.77490000      -1.25300000
