16
Properties=species:S:1:pos:R:3 gdb_79978=T pbc="F F F"
O        0.01000000       1.39110000      -0.09660000
C       -0.04970000       0.00860000      -0.02460000
C       -0.42960000      -0.73930000       1.24270000
C       -1.18210000       0.05550000       2.25480000
C       -2.33950000       0.49190000       1.73230000
N       -2.51940000       0.02220000       0.42600000
C       -3.62860000       0.26680000      -0.34300000
O       -4.57520000       0.93130000       0.01370000
C       -1.36220000      -0.73860000       0.01170000
H       -0.36630000       1.74840000       0.71880000
H        0.72750000      -0.45260000      -0.62560000
H        0.15060000      -1.60440000       1.54480000
H       -0.84070000       0.24510000       3.26160000
H       -3.11070000       1.11900000       2.15300000
H       -3.55620000      -0.22110000      -1.33260000
H       -1.55180000      -1.59940000      -0.61910000
