21
Properties=species:S:1:pos:R:3 gdb_106828=T pbc="F F F"
C       -0.09350000       1.50860000      -0.25410000
C       -0.02260000       0.01520000       0.09590000
C       -1.37600000      -0.62580000       0.09390000
C       -2.11750000      -1.17770000      -1.08880000
C       -1.89850000      -2.05060000       0.14530000
C       -1.22740000      -3.38810000       0.10600000
O       -2.11780000      -4.44000000      -0.25100000
C       -2.81610000      -1.53090000       1.24640000
O       -2.31900000      -0.17520000       1.07950000
H        0.89890000       1.96660000      -0.21190000
H       -0.49570000       1.65770000      -1.26110000
H       -0.74360000       2.03640000       0.44930000
H        0.61850000      -0.51220000      -0.62000000
H        0.43030000      -0.11120000       1.08670000
H       -3.10630000      -0.79700000      -1.33150000
H       -1.50140000      -1.44450000      -1.94360000
H       -0.36150000      -3.34870000      -0.57500000
H       -0.84670000      -3.65700000       1.09770000
H       -2.52060000      -4.19780000      -1.09180000
H       -3.89890000      -1.60000000       1.09040000
H       -2.56120000      -1.91640000       2.24100000
