21
Properties=species:S:1:pos:R:3 gdb_95626=T pbc="F F F"
C       -0.03370000       1.57080000       0.03360000
C        0.03970000       0.04040000      -0.00050000
C        0.69360000      -0.48910000      -1.28970000
C        0.72410000      -2.02280000      -1.32790000
C        1.43600000      -2.60970000      -0.08990000
C        0.82930000      -2.04900000       1.18340000
O        0.42080000      -2.73200000       2.09460000
C        0.77070000      -0.51470000       1.23470000
O        2.10290000       0.00560000       1.22790000
H        0.96940000       2.00490000       0.02900000
H       -0.57840000       1.95140000      -0.83620000
H       -0.54900000       1.92280000       0.93350000
H       -0.98390000      -0.35960000       0.04960000
H        0.14640000      -0.10510000      -2.15790000
H        1.71460000      -0.09570000      -1.35840000
H       -0.30290000      -2.40920000      -1.36690000
H        1.22350000      -2.37410000      -2.23690000
H        1.38200000      -3.70020000      -0.05780000
H        2.49190000      -2.31310000      -0.11460000
H        0.24140000      -0.22830000       2.15330000
H        2.51660000      -0.22950000       2.06470000
