17
Properties=species:S:1:pos:R:3 gdb_81672=T pbc="F F F"
O       -0.20890000       1.54970000       0.12990000
C       -0.02270000       0.16180000       0.04980000
C        0.19530000      -0.67490000       1.33900000
C       -0.50280000      -0.04260000       2.53870000
C       -1.90910000       0.44440000       2.15920000
O       -2.56250000       1.14290000       2.89240000
C       -2.43580000      -0.03000000       0.79810000
C       -1.31820000      -0.66540000      -0.02510000
O       -0.67580000      -1.69670000       0.77850000
H        0.64890000       1.98450000       0.15730000
H        0.68310000      -0.12680000      -0.73660000
H        1.19210000      -1.06290000       1.56570000
H       -0.60420000      -0.79010000       3.33420000
H        0.05430000       0.80230000       2.95550000
H       -3.22210000      -0.77310000       0.97470000
H       -2.89510000       0.82280000       0.28990000
H       -1.65190000      -1.04300000      -0.99450000
