21
Properties=species:S:1:pos:R:3 gdb_56155=T pbc="F F F"
C        0.42640000       0.55740000       1.45280000
C        0.16300000      -0.21150000       0.19010000
N        0.88180000      -0.07600000      -0.84410000
O       -0.92130000      -1.02570000       0.36180000
C       -1.34280000      -1.83740000      -0.72740000
C       -2.56450000      -2.63840000      -0.31470000
C       -3.14060000      -3.46790000      -1.44170000
C       -2.68760000      -3.09290000       1.09200000
N       -3.55170000      -2.00860000       0.57320000
H        1.29350000       1.20090000       1.31300000
H       -0.44540000       1.16450000       1.71640000
H        0.60660000      -0.13070000       2.28470000
H        0.58150000      -0.66290000      -1.62060000
H       -1.58970000      -1.20020000      -1.58970000
H       -0.53150000      -2.51440000      -1.03060000
H       -2.41810000      -4.21070000      -1.79870000
H       -4.03560000      -3.99170000      -1.09950000
H       -3.42630000      -2.83600000      -2.29060000
H       -3.20270000      -4.02410000       1.31190000
H       -1.89750000      -2.82620000       1.78640000
H       -3.17790000      -1.12130000       0.90370000
