21
Properties=species:S:1:pos:R:3 gdb_64416=T pbc="F F F"
C        0.06660000       1.50090000      -0.00280000
C       -0.01970000      -0.02650000       0.01060000
C       -1.48460000      -0.49480000       0.04610000
O        0.61280000      -0.43700000      -1.20910000
C        0.95150000      -1.80820000      -1.29330000
C        2.05190000      -2.18620000      -0.29720000
C        1.73320000      -1.63670000       1.08110000
O        2.11130000      -0.27430000       1.31600000
C        0.72150000      -0.57510000       1.22610000
H        1.11450000       1.80710000      -0.01220000
H       -0.42470000       1.89310000      -0.89760000
H       -0.41980000       1.92790000       0.87960000
H       -2.00410000      -0.13890000      -0.84750000
H       -1.56890000      -1.58520000       0.08170000
H       -1.99800000      -0.09530000       0.92620000
H        0.06850000      -2.44420000      -1.12740000
H        1.28150000      -1.97150000      -2.32330000
H        2.15150000      -3.27640000      -0.25420000
H        3.01550000      -1.77900000      -0.62090000
H        1.92290000      -2.29320000       1.93020000
H        0.17750000      -0.48520000       2.16780000
