20
Properties=species:S:1:pos:R:3 gdb_6176=T pbc="F F F"
C       -0.13040000       1.52320000       0.06630000
C        0.05510000       0.01210000      -0.09180000
O        0.70520000      -0.30250000      -1.32420000
C        0.78130000      -0.59110000       1.09240000
C        0.03330000      -1.18860000       2.27530000
C        0.83850000      -2.06760000       1.34480000
C        0.16360000      -3.06900000       0.43560000
O        2.10120000      -2.48520000       1.80790000
H        0.84170000       2.02400000       0.15270000
H       -0.65000000       1.93470000      -0.80310000
H       -0.70730000       1.75710000       0.96690000
H       -0.93320000      -0.45260000      -0.18560000
H        1.61860000      -0.00320000      -1.25570000
H        1.70380000      -0.07630000       1.35650000
H        0.43340000      -1.00690000       3.26640000
H       -1.05040000      -1.23380000       2.21930000
H       -0.81550000      -2.72080000       0.09830000
H        0.78040000      -3.25980000      -0.44670000
H        0.01040000      -4.01850000       0.96400000
H        1.96600000      -3.25850000       2.36730000
