21
Properties=species:S:1:pos:R:3 gdb_41935=T pbc="F F F"
C       -0.04130000       1.42090000       0.04100000
C        1.42260000       1.95460000      -0.00530000
C        2.21170000       0.72040000       0.43980000
C        3.67210000       0.49440000       0.07310000
C        4.12390000      -0.87090000       0.65360000
C        3.04640000      -1.93560000       0.66610000
C        1.77300000      -1.73220000       0.32340000
C        1.35090000      -0.38340000      -0.16880000
O        0.02230000      -0.00930000       0.16560000
H       -0.59690000       1.80330000       0.90370000
H       -0.59570000       1.69440000      -0.86670000
H        1.69790000       2.24620000      -1.02490000
H        1.56700000       2.82490000       0.63980000
H        2.10680000       0.62110000       1.52900000
H        3.77940000       0.49090000      -1.01950000
H        4.32030000       1.29250000       0.45020000
H        4.99780000      -1.24210000       0.10310000
H        4.47710000      -0.73300000       1.68640000
H        3.36260000      -2.92300000       0.99590000
H        1.03790000      -2.53100000       0.34860000
H        1.46250000      -0.35380000      -1.27180000
