19
Properties=species:S:1:pos:R:3 gdb_105271=T pbc="F F F"
C        0.90450000       1.11010000       0.30660000
O        0.06420000       0.07410000      -0.17950000
C        0.53910000      -0.59860000      -1.31450000
C        1.69320000      -1.56760000      -1.14110000
C        0.26920000      -2.07810000      -1.24380000
O       -0.38520000      -2.58040000      -0.12570000
C        0.34700000       0.15590000      -2.59640000
C        1.45270000       0.81300000      -3.31130000
O        0.91890000      -0.43430000      -3.76200000
H        1.90800000       0.73450000       0.54500000
H        0.99720000       1.92800000      -0.41900000
H        0.43730000       1.49400000       1.21600000
H        2.35420000      -1.72560000      -1.98590000
H        2.15390000      -1.61220000      -0.16010000
H       -0.01530000      -2.58560000      -2.16020000
H       -0.55820000      -1.82040000       0.44690000
H       -0.66090000       0.55140000      -2.73320000
H        1.24800000       1.66590000      -3.95620000
H        2.45920000       0.76350000      -2.89940000
