15
Properties=species:S:1:pos:R:3 gdb_82021=T pbc="F F F"
O        0.14140000       1.36560000       0.21750000
C        0.04430000      -0.00770000       0.07200000
C       -1.34850000      -0.63480000       0.01430000
N       -1.97000000      -0.05220000      -1.20600000
C       -1.09560000      -1.24400000      -1.31690000
C        0.31300000      -0.62370000      -1.41150000
O        0.51210000       0.29030000      -2.44610000
C        1.38770000      -1.61040000      -1.41250000
N        2.21620000      -2.41390000      -1.35650000
H       -0.52880000       1.76110000      -0.35400000
H        0.69880000      -0.47640000       0.80830000
H       -1.96250000      -0.99120000       0.83110000
H       -2.93890000      -0.35820000      -1.25770000
H       -1.44620000      -2.17220000      -1.74820000
H       -0.34080000       0.73290000      -2.56250000
