20
Properties=species:S:1:pos:R:3 gdb_47103=T pbc="F F F"
O       -0.11320000      -0.05000000       0.04670000
C       -0.07250000       1.16200000       0.05410000
N       -1.15430000       2.00040000       0.03600000
C       -0.84950000       3.41930000       0.01260000
C        0.63660000       3.45500000       0.43220000
C        0.88030000       3.58820000       1.94810000
C        2.22610000       2.87950000       2.16690000
C        2.17010000       1.64860000       1.23220000
C        1.18320000       2.04330000       0.10180000
H       -2.08450000       1.62650000      -0.06420000
H       -0.99880000       3.84920000      -0.98770000
H       -1.48660000       3.97520000       0.71050000
H        1.17260000       4.24310000      -0.10310000
H        0.87330000       4.62730000       2.29010000
H        0.08740000       3.05760000       2.49140000
H        3.04390000       3.54450000       1.86380000
H        2.40240000       2.61060000       3.21210000
H        3.15580000       1.38550000       0.84180000
H        1.79230000       0.76370000       1.75280000
H        1.65110000       1.99000000      -0.88610000
