19
Properties=species:S:1:pos:R:3 gdb_99654=T pbc="F F F"
C        0.36560000       1.54590000       0.04600000
O       -0.12250000       0.25740000      -0.27370000
C        0.66390000      -0.43110000      -1.22010000
C        2.00370000      -0.75350000      -0.69860000
C        3.09690000      -1.01950000      -0.27630000
C       -0.02750000      -1.71230000      -1.68280000
O       -0.69170000      -2.52170000      -0.72670000
C       -1.47430000      -1.96380000      -1.79690000
C       -2.59350000      -1.01790000      -1.44690000
H        1.36540000       1.49890000       0.49620000
H        0.41020000       2.19180000      -0.84450000
H       -0.33350000       1.97740000       0.76500000
H        0.79650000       0.19570000      -2.12210000
H        4.06060000      -1.25980000       0.10060000
H        0.62580000      -2.26370000      -2.36410000
H       -1.74690000      -2.71030000      -2.54840000
H       -2.28970000      -0.31690000      -0.67290000
H       -2.90210000      -0.45830000      -2.33740000
H       -3.46120000      -1.58910000      -1.09980000
