19
Properties=species:S:1:pos:R:3 gdb_68475=T pbc="F F F"
O       -0.26780000       1.45400000      -0.14390000
C       -0.07910000       0.06050000      -0.04470000
C        0.26400000      -0.53350000       1.36030000
C       -0.72950000      -1.68310000       1.04240000
C       -1.41000000      -0.73710000       0.01350000
O       -0.18750000      -2.85490000       0.45660000
C        1.08420000      -2.80890000      -0.16890000
C        1.34260000      -1.69990000      -1.16470000
C        0.85050000      -0.46320000      -1.11420000
H        0.59830000       1.87650000      -0.14350000
H        1.30380000      -0.77460000       1.59060000
H       -0.14350000       0.11140000       2.14270000
H       -1.35210000      -2.03430000       1.86780000
H       -2.19150000      -0.13070000       0.47980000
H       -1.77560000      -1.18920000      -0.90930000
H        1.88500000      -2.80210000       0.59080000
H        1.16670000      -3.77170000      -0.68400000
H        2.00880000      -1.96960000      -1.98080000
H        1.08650000       0.24520000      -1.90510000
