15
Properties=species:S:1:pos:R:3 gdb_132567=T pbc="F F F"
C       -0.00820000       1.50050000      -0.03570000
C        0.00450000      -0.00050000      -0.00290000
N       -0.04790000      -0.65100000      -1.16850000
C       -0.02270000      -1.96930000      -1.11290000
F       -0.07260000      -2.59280000      -2.28040000
N        0.04420000      -2.74290000      -0.04910000
C        0.08840000      -2.09440000       1.11580000
C        0.07410000      -0.70330000       1.21610000
N        0.19360000      -0.04320000       2.44080000
H        0.85260000       1.91060000       0.50520000
H        0.01510000       1.84580000      -1.06930000
H       -0.91130000       1.90340000       0.44240000
H        0.14140000      -2.70990000       2.01270000
H       -0.01590000      -0.62070000       3.24350000
H       -0.29430000       0.83950000       2.49760000
