20
Properties=species:S:1:pos:R:3 gdb_107427=T pbc="F F F"
C       -0.34480000       1.47820000      -0.06620000
C        0.15340000       0.03710000       0.11200000
C        0.86170000      -0.50200000      -1.10750000
N        0.10320000      -0.88080000      -2.32140000
C        0.81520000      -1.92420000      -1.55610000
C        2.17050000      -2.33630000      -2.13120000
C        3.04220000      -1.08620000      -2.03390000
O        2.60310000       0.02510000      -2.81760000
C        2.26070000       0.00960000      -1.43290000
H        0.48420000       2.16310000      -0.27180000
H       -1.04530000       1.55220000      -0.90390000
H       -0.85460000       1.83110000       0.83520000
H        0.83130000      -0.01390000       0.97450000
H       -0.69160000      -0.62090000       0.35130000
H       -0.88700000      -0.92270000      -2.08360000
H        0.22460000      -2.66470000      -1.02340000
H        2.60880000      -3.13360000      -1.52000000
H        2.09430000      -2.70100000      -3.16010000
H        4.12160000      -1.18130000      -1.93170000
H        2.69820000       0.79950000      -0.82700000
