18
Properties=species:S:1:pos:R:3 gdb_59692=T pbc="F F F"
C       -0.07160000       1.61350000       0.18870000
C       -0.06390000       0.09620000       0.06760000
O        0.42130000      -0.25170000      -1.22240000
C        0.84790000      -0.52540000       1.12760000
O        0.36440000      -0.32140000       2.47420000
C        0.17560000      -1.72770000       2.69440000
C        0.79420000      -2.07700000       1.31300000
C       -0.01690000      -2.82950000       0.37420000
N       -0.67230000      -3.39670000      -0.39250000
H        0.92500000       2.01260000      -0.02630000
H       -0.77460000       2.04560000      -0.52740000
H       -0.36140000       1.91140000       1.19970000
H       -1.08430000      -0.28590000       0.21960000
H        0.07990000      -1.12350000      -1.45030000
H        1.86780000      -0.14390000       0.99910000
H        0.74200000      -2.09500000       3.55620000
H       -0.88010000      -1.99690000       2.80760000
H        1.78220000      -2.53440000       1.38400000
