18
Properties=species:S:1:pos:R:3 gdb_15798=T pbc="F F F"
O       -0.43900000       1.31970000       0.11080000
C       -0.07110000      -0.05390000       0.04560000
C        0.76840000      -0.32920000      -1.21360000
C        0.06540000       0.15970000      -2.46120000
O        0.54730000       0.90830000      -3.27070000
C        0.62430000      -0.54140000       1.30820000
C        1.57670000       0.34650000       2.06900000
C        0.22830000       0.00040000       2.65350000
H        0.35120000       1.85140000      -0.03650000
H       -1.02810000      -0.58490000      -0.04850000
H        1.75050000       0.15180000      -1.14550000
H        0.92900000      -1.41220000      -1.30940000
H       -0.96970000      -0.23470000      -2.58730000
H        0.88550000      -1.59600000       1.26900000
H        2.46600000      -0.10210000       2.49690000
H        1.71840000       1.36680000       1.72800000
H       -0.51590000       0.78820000       2.66200000
H        0.18520000      -0.68330000       3.49380000
