18
Properties=species:S:1:pos:R:3 gdb_54452=T pbc="F F F"
C        0.07660000       1.32690000      -0.49090000
C       -0.07170000       0.03700000       0.29840000
O        0.81450000      -0.36970000       1.02600000
C       -1.33610000      -0.70650000       0.12750000
C       -1.75170000      -1.77000000       1.13190000
C       -1.40880000      -2.21950000      -0.23940000
C       -2.50110000      -1.87940000      -1.28790000
N       -3.64780000      -1.23740000      -0.59550000
C       -2.44050000      -0.44710000      -0.94180000
H        1.03500000       1.78980000      -0.25430000
H        0.02350000       1.12590000      -1.56740000
H       -0.73850000       2.02070000      -0.25420000
H       -0.98120000      -1.94880000       1.87330000
H       -2.77830000      -1.78630000       1.47210000
H       -0.54340000      -2.83010000      -0.46030000
H       -2.61870000      -2.36320000      -2.24820000
H       -4.35020000      -1.03730000      -1.30700000
H       -2.50390000       0.42630000      -1.57730000
