18
Properties=species:S:1:pos:R:3 gdb_31574=T pbc="F F F"
C       -0.09970000       1.31470000       0.01750000
O       -0.02530000      -0.11180000       0.10380000
C        0.64380000      -0.56620000       1.15330000
N        1.23210000       0.08830000       2.09890000
C        1.76170000      -0.92560000       2.91540000
C        2.53380000      -0.58820000       4.14530000
C        1.44760000      -2.13410000       2.39200000
C        1.69520000      -3.55070000       2.75360000
O        0.71130000      -1.90430000       1.23130000
H        0.90200000       1.74790000      -0.05290000
H       -0.67300000       1.52530000      -0.88520000
H       -0.60150000       1.72710000       0.89720000
H        1.92330000      -0.00260000       4.84130000
H        2.87360000      -1.48850000       4.66340000
H        3.41280000       0.01820000       3.90040000
H        0.75920000      -4.09850000       2.91450000
H        2.25300000      -4.07810000       1.97070000
H        2.27860000      -3.60090000       3.67580000
