17
Properties=species:S:1:pos:R:3 gdb_83767=T pbc="F F F"
O        0.22630000       1.40680000      -0.14330000
C        0.03340000       0.02230000      -0.02820000
C        0.21710000      -0.60380000       1.39130000
O       -0.11700000       0.38300000       2.37410000
C       -1.53610000       0.61510000       2.30220000
C       -2.06010000      -0.41220000       1.31530000
C       -1.01660000      -1.48530000       1.13820000
C       -1.37610000      -0.57930000      -0.03330000
O       -2.08240000      -0.95250000      -1.15890000
H        0.29700000       1.73270000       0.76490000
H        0.64290000      -0.49400000      -0.77900000
H        1.17830000      -1.04160000       1.65280000
H       -1.96830000       0.47150000       3.30020000
H       -1.72390000       1.64920000       1.98800000
H       -3.10300000      -0.70540000       1.34210000
H       -1.14500000      -2.54610000       1.29690000
H       -2.51720000      -0.16980000      -1.51550000
