15
Properties=species:S:1:pos:R:3 gdb_22792=T pbc="F F F"
O       -0.00280000       1.34360000       0.03950000
N        0.02800000      -0.03510000      -0.01720000
C       -1.11460000      -0.61160000       0.01390000
C       -1.10210000      -2.12530000      -0.03750000
C       -2.21980000      -2.65750000      -0.89520000
C       -3.31720000      -1.92680000      -1.08660000
N       -3.46090000      -0.64930000      -0.53600000
C       -2.45250000       0.08700000       0.06160000
O       -2.66460000       1.17950000       0.54170000
H        0.93190000       1.56780000      -0.03730000
H       -0.11920000      -2.45030000      -0.38880000
H       -1.20640000      -2.52370000       0.98610000
H       -2.13960000      -3.64600000      -1.32840000
H       -4.16550000      -2.26600000      -1.66880000
H       -4.35300000      -0.17940000      -0.57590000
