15
Properties=species:S:1:pos:R:3 gdb_593=T pbc="F F F"
C        0.13840000       1.33630000       0.05100000
O        0.23980000      -0.06700000       0.03050000
C        0.44990000      -0.58210000      -1.26670000
C        0.48730000      -2.08370000      -1.19760000
C        1.35550000      -2.83360000      -2.13910000
N        1.68760000      -2.77500000      -0.70720000
H        1.05910000       1.81970000      -0.31400000
H       -0.70170000       1.69570000      -0.56500000
H       -0.02990000       1.63720000       1.08770000
H       -0.35700000      -0.25330000      -1.94550000
H        1.39960000      -0.20110000      -1.68550000
H       -0.44200000      -2.54000000      -0.86410000
H        1.04850000      -3.81080000      -2.50020000
H        1.95610000      -2.26180000      -2.84280000
H        2.43040000      -2.09850000      -0.54550000
