16
Properties=species:S:1:pos:R:3 gdb_9809=T pbc="F F F"
C        0.07900000       1.49710000      -0.22620000
C        0.08240000      -0.01390000      -0.11180000
C        1.41940000      -0.74520000      -0.01630000
C        0.55160000      -0.65590000       1.19180000
C       -0.98420000      -0.79010000      -0.82050000
O       -1.05360000      -2.00460000      -0.78040000
C       -1.96300000      -0.02630000      -1.58010000
C       -2.78490000       0.58220000      -2.21560000
H        0.91230000       1.91990000       0.34240000
H        0.18380000       1.82300000      -1.26580000
H       -0.84700000       1.92910000       0.16600000
H        1.47670000      -1.70330000      -0.51930000
H        2.30970000      -0.12870000      -0.07170000
H        0.82870000       0.02380000       1.99000000
H        0.02810000      -1.55410000       1.49730000
H       -3.51600000       1.10870000      -2.77980000
