14
Properties=species:S:1:pos:R:3 gdb_24997=T pbc="F F F"
O        0.02070000       0.05420000       0.01870000
C       -0.02220000       1.23860000      -0.00510000
O       -1.14570000       2.00880000      -0.13940000
C       -0.70570000       3.32950000      -0.21210000
C        0.60800000       3.33740000      -0.04200000
N        1.17510000       4.55640000       0.29370000
C        0.04210000       5.50720000       0.00460000
C       -1.28830000       4.67080000       0.08070000
O        1.09930000       2.07130000       0.07490000
H        2.02560000       4.79920000      -0.20370000
H        0.05990000       6.33060000       0.71980000
H        0.14680000       5.91600000      -1.00660000
H       -2.03170000       5.04540000      -0.62860000
H       -1.73210000       4.71490000       1.08480000
