17
Properties=species:S:1:pos:R:3 gdb_65886=T pbc="F F F"
C       -0.08390000       1.56790000      -0.00010000
C       -0.01670000       0.03430000      -0.00220000
C        1.18770000      -0.52570000      -0.82460000
O        1.94020000      -0.78200000       0.37320000
C        0.79030000      -0.54600000       1.20300000
C       -1.30860000      -0.56510000      -0.26150000
C       -2.39030000      -1.06520000      -0.47860000
C       -3.60440000      -1.62810000      -0.72230000
C       -4.68240000      -2.12770000      -0.93890000
H        0.90900000       1.98290000       0.19870000
H       -0.43140000       1.94230000      -0.96720000
H       -0.77220000       1.92500000       0.77130000
H        0.96050000      -1.44510000      -1.37720000
H        1.68590000       0.19180000      -1.48620000
H        0.99910000       0.15680000       2.01740000
H        0.37480000      -1.47500000       1.61120000
H       -5.62980000      -2.56740000      -1.12910000
