13
Properties=species:S:1:pos:R:3 gdb_11193=T pbc="F F F"
N       -0.04970000       1.29640000       0.01100000
C       -0.03460000       0.03040000       0.00340000
O        1.08730000      -0.75990000      -0.00750000
C        0.71270000      -2.14340000      -0.01360000
C       -0.79230000      -2.12620000      -0.00520000
C       -1.61150000      -3.34180000      -0.00780000
O       -1.13820000      -4.45610000      -0.01700000
C       -1.20810000      -0.85210000       0.00470000
H        0.90060000       1.67040000       0.00790000
H        1.12420000      -2.63040000      -0.90510000
H        1.13400000      -2.64080000       0.86750000
H       -2.70850000      -3.17280000      -0.00080000
H       -2.22120000      -0.47610000       0.01250000
