17
Properties=species:S:1:pos:R:3 gdb_52950=T pbc="F F F"
C        0.05380000       1.47790000      -0.01280000
C        0.01280000       0.02460000       0.00600000
C       -0.01960000      -1.18050000       0.01540000
C       -0.05710000      -2.59640000       0.01710000
C       -0.40200000      -3.47710000       1.20660000
C       -1.17590000      -3.63720000      -0.07470000
O       -2.53600000      -3.47480000      -0.19120000
C       -0.30050000      -4.30230000      -1.12840000
O        0.76780000      -3.34580000      -0.89330000
H        0.82030000       1.83360000      -0.71010000
H       -0.90520000       1.90070000      -0.33270000
H        0.28880000       1.88770000       0.97580000
H        0.31540000      -4.22460000       1.53700000
H       -0.94750000      -2.96100000       1.99070000
H       -2.96850000      -3.99230000       0.49620000
H        0.01970000      -5.33700000      -0.95820000
H       -0.70710000      -4.19110000      -2.13970000
