11
Properties=species:S:1:pos:R:3 gdb_21388=T pbc="F F F"
N        0.00400000       1.34840000       0.00930000
N        1.29370000       1.83560000      -0.00000000
C        2.09850000       0.78530000      -0.01380000
C        1.34190000      -0.41830000      -0.01280000
C        0.01820000       0.00090000       0.00250000
N       -0.71500000      -1.12780000       0.00300000
N        0.15030000      -2.21870000      -0.01140000
N        1.36570000      -1.78720000      -0.02090000
H       -0.75950000       1.99990000       0.02230000
H        3.16700000       0.93450000      -0.02350000
H       -1.70650000      -1.29280000       0.01220000
