14
Properties=species:S:1:pos:R:3 gdb_130605=T pbc="F F F"
O       -0.02100000      -0.01410000       0.02400000
C        0.02620000       1.19670000       0.03870000
C       -1.23500000       2.00430000       0.07320000
N       -1.31420000       3.30180000       0.09160000
N       -0.09620000       3.85830000       0.07570000
C        0.47800000       5.20990000       0.08190000
C        1.87780000       4.48680000       0.04580000
C        1.07910000       3.18790000       0.04440000
N        1.24870000       1.91590000       0.02460000
H       -2.17020000       1.45430000       0.08380000
H        0.22480000       5.79840000      -0.80290000
H        0.25920000       5.77570000       0.99030000
H        2.46570000       4.66300000      -0.85580000
H        2.49960000       4.64000000       0.92880000
