15
Properties=species:S:1:pos:R:3 gdb_61117=T pbc="F F F"
O       -0.05470000       1.44510000       0.11290000
C        0.00490000       0.03600000      -0.02640000
C        0.59040000      -0.67890000       1.22280000
C       -0.01480000      -0.23030000       2.46820000
C       -0.50810000       0.13690000       3.49980000
C       -1.46700000      -0.39310000      -0.25060000
O       -1.89930000      -1.47330000       0.03310000
C        0.75360000      -0.35030000      -1.22680000
C        1.37230000      -0.65000000      -2.21320000
H        0.83860000       1.79700000       0.03400000
H        0.43030000      -1.75380000       1.08650000
H        1.67350000      -0.51150000       1.24170000
H       -0.94910000       0.45710000       4.41110000
H       -2.07330000       0.40910000      -0.71850000
H        1.91440000      -0.91770000      -3.08720000
