15
Properties=species:S:1:pos:R:3 gdb_123886=T pbc="F F F"
C       -0.12780000       1.30410000      -0.31680000
C        1.28630000       0.95070000       0.01060000
N        0.23500000      -0.04370000       0.12260000
C       -0.15000000      -0.53270000       1.36450000
C       -1.49150000      -0.89260000       1.60800000
N       -1.84700000      -1.42760000       2.75700000
C       -0.84410000      -1.59840000       3.63670000
N        0.42780000      -1.27160000       3.45710000
N        0.78370000      -0.71860000       2.29670000
H       -0.66230000       1.93550000       0.38900000
H       -0.45190000       1.38610000      -1.34960000
H        2.00050000       0.78090000      -0.78880000
H        1.70640000       1.32920000       0.93740000
H       -2.25570000      -0.73430000       0.85000000
H       -1.09130000      -2.04460000       4.59450000
