16
Properties=species:S:1:pos:R:3 gdb_19797=T pbc="F F F"
O       -0.02850000       1.39770000       0.10490000
C        0.03290000      -0.00280000      -0.03000000
C        0.77910000      -0.69050000       1.13120000
N        0.23220000      -0.30950000       2.44660000
C       -0.15050000      -1.60330000       1.84350000
C       -1.48010000      -1.59080000       1.10760000
N       -2.17580000      -0.28690000       1.11410000
C       -1.35700000      -0.67040000      -0.05100000
H       -0.49060000       1.54030000       0.94310000
H        0.55250000      -0.20420000      -0.97240000
H        1.84290000      -0.88490000       1.03900000
H        0.93690000      -0.46730000       3.16300000
H        0.18060000      -2.52480000       2.31020000
H       -2.06450000      -2.50380000       1.06760000
H       -3.15920000      -0.42880000       0.89620000
H       -1.84660000      -0.85010000      -1.00280000
