17
Properties=species:S:1:pos:R:3 gdb_25962=T pbc="F F F"
C       -0.20830000       1.55530000      -0.00660000
C        0.10510000       0.06730000      -0.04260000
O        1.23700000      -0.35760000      -0.15790000
N       -0.99820000      -0.75000000       0.05320000
C       -0.97970000      -2.14830000       0.01810000
C        0.04190000      -3.05890000      -0.13270000
C       -0.55430000      -4.35340000      -0.08610000
C       -1.90470000      -4.19680000       0.08970000
N       -2.16000000      -2.84110000       0.15260000
H        0.44910000       2.03160000       0.72440000
H        0.02220000       1.98920000      -0.98430000
H       -1.24720000       1.78750000       0.24340000
H       -1.89740000      -0.30500000       0.13540000
H        1.07890000      -2.80640000      -0.25830000
H       -0.03540000      -5.29530000      -0.17450000
H       -2.70660000      -4.91100000       0.17490000
H       -3.06770000      -2.43250000       0.28920000
