18
Properties=species:S:1:pos:R:3 gdb_108967=T pbc="F F F"
O        0.00500000       1.39340000       0.14870000
C       -0.01400000      -0.01090000      -0.02470000
C       -1.42460000      -0.48530000      -0.12470000
C       -2.55120000       0.23700000      -0.04470000
C       -3.72340000      -0.67230000      -0.08430000
C       -3.28160000      -2.00090000      -0.55170000
C       -1.79340000      -1.95160000      -0.09400000
C       -2.41020000      -2.20480000       1.32850000
N       -3.78790000      -1.89730000       0.85280000
H        0.92070000       1.68530000       0.13440000
H        0.53370000      -0.31080000      -0.93640000
H        0.48780000      -0.52860000       0.81360000
H       -2.61160000       1.30760000       0.08910000
H       -4.72350000      -0.30990000      -0.28700000
H       -3.74180000      -2.62320000      -1.31300000
H       -1.06370000      -2.66670000      -0.47320000
H       -2.39160000      -3.26310000       1.59940000
H       -2.03890000      -1.59460000       2.15900000
