20
Properties=species:S:1:pos:R:3 gdb_67737=T pbc="F F F"
C       -0.02010000       1.47690000       0.04540000
C        0.03110000      -0.02960000      -0.01240000
C       -0.00790000      -0.73400000      -1.32830000
C       -0.50020000      -1.95840000      -1.14780000
C       -0.70760000      -2.17620000       0.33480000
C       -1.77790000      -3.15000000       0.76620000
C        0.71640000      -2.27400000       0.99080000
C        0.63070000      -0.77010000       1.16110000
N       -0.85910000      -0.75700000       0.92360000
H        0.88250000       1.91600000      -0.39370000
H       -0.88760000       1.85430000      -0.50560000
H       -0.10120000       1.82270000       1.07930000
H        0.33830000      -0.29040000      -2.25340000
H       -0.60090000      -2.74340000      -1.88760000
H       -1.55050000      -4.16080000       0.40950000
H       -1.85800000      -3.18060000       1.85670000
H       -2.75190000      -2.85430000       0.36310000
H        0.65930000      -2.76640000       1.96540000
H        1.53160000      -2.70780000       0.40420000
H        1.07950000      -0.21350000       1.98030000
