29
Properties=species:S:1:pos:R:3 gdb_118059=T pbc="F F F"
C       -0.03980000       1.65430000       0.06290000
C       -0.01270000       0.13390000      -0.12080000
C       -1.36330000      -0.52680000       0.18510000
C       -1.38760000      -2.06430000       0.02560000
C       -0.65140000      -2.71770000       1.20730000
C       -2.84280000      -2.58710000      -0.16330000
C       -3.38710000      -2.19320000      -1.54770000
C       -2.97220000      -4.10970000       0.05100000
C       -4.39860000      -4.65830000      -0.07690000
H        0.93080000       2.10330000      -0.17040000
H       -0.78720000       2.11930000      -0.59000000
H       -0.29180000       1.92410000       1.09460000
H        0.27590000      -0.10410000      -1.15330000
H        0.77180000      -0.29030000       0.51730000
H       -1.66580000      -0.27720000       1.21270000
H       -2.11650000      -0.06710000      -0.46450000
H       -0.83490000      -2.31710000      -0.89270000
H       -0.47490000      -3.78450000       1.05050000
H        0.32490000      -2.25040000       1.36520000
H       -1.22290000      -2.60390000       2.13680000
H       -3.46570000      -2.09740000       0.60230000
H       -4.45540000      -2.40670000      -1.63770000
H       -3.25450000      -1.12930000      -1.75970000
H       -2.86870000      -2.75300000      -2.33620000
H       -2.31690000      -4.62950000      -0.66280000
H       -2.60090000      -4.36740000       1.04750000
H       -4.78910000      -4.57320000      -1.09500000
H       -4.42990000      -5.71780000       0.19670000
H       -5.08780000      -4.12550000       0.58890000
