18
Properties=species:S:1:pos:R:3 gdb_90203=T pbc="F F F"
C       -0.42040000       1.42060000       0.04450000
C        0.01720000      -0.03840000      -0.01130000
C        1.30840000      -0.33420000      -0.89160000
C        2.12250000      -0.48340000       0.41460000
O        2.60150000       0.72610000       1.10010000
C        1.94140000      -0.03560000       2.14780000
C        2.39540000      -1.45480000       1.61110000
N        0.99460000      -1.99460000       1.65850000
C        0.81320000      -0.56070000       1.22520000
H        0.42270000       2.06490000       0.30530000
H       -0.81470000       1.74150000      -0.92570000
H       -1.20620000       1.56150000       0.79350000
H       -0.83330000      -0.68260000      -0.25410000
H        1.24240000      -1.25660000      -1.47320000
H        1.65140000       0.47160000      -1.54450000
H        1.95570000       0.36310000       3.16600000
H        3.27240000      -2.04920000       1.88680000
H        0.85340000      -2.61990000       0.85920000
