18
Properties=species:S:1:pos:R:3 gdb_110151=T pbc="F F F"
C        0.18270000       1.61900000      -0.04920000
C        0.34540000       0.09600000       0.01260000
C        0.56310000      -0.52160000      -1.36590000
C        0.65290000      -2.08860000      -1.50490000
C       -0.33070000      -2.04420000      -2.72400000
C       -0.62040000      -0.58190000      -2.35020000
O       -1.49240000       0.18500000      -2.63500000
C        1.96930000      -2.65520000      -1.73250000
N        3.02340000      -3.09040000      -1.92450000
H        1.08420000       2.09460000      -0.45040000
H       -0.65790000       1.89360000      -0.69150000
H        0.00390000       2.03010000       0.94840000
H        1.19390000      -0.16930000       0.65500000
H       -0.54490000      -0.35400000       0.46990000
H        1.42120000      -0.05480000      -1.86620000
H        0.19090000      -2.57890000      -0.64380000
H        0.18270000      -2.12460000      -3.68640000
H       -1.17540000      -2.73540000      -2.71170000
