17
Properties=species:S:1:pos:R:3 gdb_29024=T pbc="F F F"
C       -0.23260000       1.54210000       0.02510000
C       -0.14760000       0.04140000      -0.00510000
C       -0.01470000      -0.59890000      -1.20220000
C        0.08850000      -1.98310000      -1.53320000
C        0.08030000      -3.06320000      -0.70580000
C       -0.03590000      -3.06070000       0.71480000
C       -0.16320000      -2.01370000       1.56940000
C       -0.22420000      -0.56720000       1.34650000
O       -0.34420000       0.17270000       2.32260000
H        0.56870000       1.95430000       0.64750000
H       -0.17520000       1.97240000      -0.97690000
H       -1.16330000       1.85900000       0.50750000
H        0.02010000       0.05630000      -2.07080000
H        0.18660000      -2.18790000      -2.59630000
H        0.17190000      -4.04110000      -1.17010000
H       -0.01950000      -4.04610000       1.17580000
H       -0.23740000      -2.24070000       2.63000000
