21
Properties=species:S:1:pos:R:3 gdb_58744=T pbc="F F F"
C       -0.01150000       1.54080000      -0.01360000
C       -0.01580000       0.00390000       0.02350000
C        0.75790000      -0.52690000       1.24140000
C       -1.43150000      -0.52150000       0.02550000
C       -2.58300000      -0.27120000      -1.02190000
C       -3.26930000      -1.19890000       0.03520000
C       -1.93450000      -2.01570000       0.02850000
C       -2.55280000      -0.31320000       1.06360000
O       -2.74620000       0.24120000       2.10330000
H        1.01340000       1.92450000      -0.02530000
H       -0.52180000       1.92190000      -0.90380000
H       -0.51680000       1.95000000       0.86740000
H        0.48060000      -0.36350000      -0.88620000
H        0.79440000      -1.62080000       1.24780000
H        1.78810000      -0.15760000       1.23600000
H        0.28480000      -0.19860000       2.17280000
H       -2.96450000       0.74600000      -1.12780000
H       -2.41340000      -0.74580000      -1.99200000
H       -4.28660000      -1.58190000       0.02710000
H       -1.74160000      -2.55220000      -0.90440000
H       -1.71040000      -2.62800000       0.90380000
