19
Properties=species:S:1:pos:R:3 gdb_80486=T pbc="F F F"
C        0.27150000       1.55160000      -0.12480000
C        0.14420000       0.04860000       0.00830000
O        0.82790000      -0.59290000      -1.09890000
C        1.18650000      -1.89380000      -0.69850000
C        2.52940000      -1.91870000      -0.02790000
O        3.31970000      -0.76200000      -0.11180000
C        1.25860000      -1.93030000       0.81020000
C        0.74300000      -0.57510000       1.30670000
O        1.71350000       0.21370000       1.96180000
H        1.31220000       1.86660000      -0.02000000
H       -0.10820000       1.88200000      -1.09520000
H       -0.30520000       2.04520000       0.66260000
H       -0.91380000      -0.24880000      -0.04940000
H        0.81220000      -2.69370000      -1.32930000
H        3.11910000      -2.83010000      -0.04670000
H        2.89390000      -0.21120000      -0.78810000
H        1.03030000      -2.82660000       1.37370000
H       -0.06270000      -0.71640000       2.03410000
H        2.53710000       0.11100000       1.46260000
