25
Properties=species:S:1:pos:R:3 gdb_89733=T pbc="F F F"
C       -0.91130000       1.05680000      -0.10720000
C        0.14460000      -0.03890000      -0.09700000
C        1.52520000       0.23930000      -0.75710000
C        2.18200000      -0.52210000       0.39760000
C        3.06450000      -1.72640000       0.23770000
C        3.60750000      -0.45660000       0.85570000
C        0.88140000      -0.43650000       1.23910000
C        0.94810000       0.69700000       2.26840000
C        0.38890000      -1.72410000       1.89330000
H       -0.52580000       1.99820000       0.29680000
H       -1.25190000       1.25320000      -1.13020000
H       -1.79120000       0.77550000       0.48270000
H       -0.28160000      -0.95050000      -0.53110000
H        1.68040000      -0.15100000      -1.76700000
H        1.77610000       1.30640000      -0.75760000
H        2.90690000      -2.57840000       0.89140000
H        3.39010000      -1.99070000      -0.76400000
H        4.30480000       0.14210000       0.27750000
H        3.80870000      -0.46100000       1.92280000
H        1.32360000       1.62720000       1.83140000
H       -0.03710000       0.90140000       2.70230000
H        1.62120000       0.42820000       3.09020000
H        1.04020000      -2.03030000       2.72120000
H       -0.61840000      -1.59060000       2.30580000
H        0.35090000      -2.54820000       1.17410000
