19
Properties=species:S:1:pos:R:3 gdb_115566=T pbc="F F F"
C       -0.13010000       1.69000000      -0.09580000
C        0.04750000       0.18280000       0.02570000
O        1.21910000      -0.29150000      -0.69180000
C        1.68710000      -1.01370000       0.47830000
C        0.54000000      -0.46080000       1.34580000
C        0.95980000       0.44860000       2.48450000
O        1.56770000      -0.38440000       3.46100000
C       -1.16150000      -0.52290000      -0.58120000
O       -1.99930000      -1.12440000       0.03780000
H        0.77700000       2.21220000       0.21730000
H       -0.32760000       1.95940000      -1.13890000
H       -0.97230000       2.03500000       0.51280000
H        1.68350000      -2.09670000       0.31460000
H        2.69320000      -0.69550000       0.77130000
H       -0.15210000      -1.21400000       1.72610000
H        1.66630000       1.21360000       2.12560000
H        0.08100000       0.97290000       2.89220000
H        1.87440000       0.17020000       4.18430000
H       -1.18750000      -0.44670000      -1.69210000
