20
Properties=species:S:1:pos:R:3 gdb_104769=T pbc="F F F"
C       -0.00770000       0.72410000       0.81910000
C        0.06270000      -0.60870000       0.06090000
C        0.64340000      -0.53830000      -1.34400000
C        2.05350000       0.01770000      -1.49640000
O        2.09110000       1.42920000      -1.38970000
C        0.17620000      -1.55000000      -2.35670000
N       -0.22420000      -0.16420000      -2.47060000
C       -1.54670000       0.24690000      -2.40940000
O       -2.48040000      -0.36020000      -2.87330000
H        0.97210000       1.19910000       0.89440000
H       -0.67500000       1.43340000       0.31920000
H       -0.39570000       0.55980000       1.82890000
H        0.67880000      -1.31640000       0.63080000
H       -0.93790000      -1.05390000       0.00370000
H        2.69640000      -0.36980000      -0.69920000
H        2.47250000      -0.31570000      -2.45690000
H        1.51600000       1.76980000      -2.08500000
H        0.86350000      -1.91200000      -3.11670000
H       -0.59640000      -2.25460000      -2.05980000
H       -1.64550000       1.24850000      -1.95000000
