20
Properties=species:S:1:pos:R:3 gdb_13417=T pbc="F F F"
O       -0.13310000       1.47450000       0.14820000
C       -0.03140000       0.07540000      -0.08080000
C       -1.41820000      -0.52610000       0.10870000
C       -1.43990000      -2.03830000      -0.04480000
C       -2.83000000      -2.69840000       0.11790000
C       -2.84100000      -3.81800000      -0.95540000
C       -1.43480000      -3.71840000      -1.58140000
O       -1.01470000      -2.38300000      -1.36220000
H        0.71930000       1.87190000      -0.05150000
H        0.32620000      -0.14400000      -1.09610000
H        0.67490000      -0.39230000       0.62580000
H       -1.78490000      -0.26130000       1.10750000
H       -2.10610000      -0.08050000      -0.61910000
H       -0.74040000      -2.49140000       0.68150000
H       -2.97220000      -3.08380000       1.13050000
H       -3.62230000      -1.96790000      -0.06930000
H       -3.03140000      -4.80850000      -0.53490000
H       -3.61060000      -3.62600000      -1.70710000
H       -0.74240000      -4.42440000      -1.09290000
H       -1.41270000      -3.90800000      -2.65760000
