21
Properties=species:S:1:pos:R:3 gdb_73720=T pbc="F F F"
C        0.00950000       1.44390000       0.03860000
C       -0.00930000      -0.07350000       0.02380000
C        1.07660000      -0.65970000      -0.86990000
O        1.06970000      -2.07010000      -0.99510000
C       -0.21900000      -2.62000000      -1.21920000
C       -1.16420000      -2.24090000      -0.08510000
C       -0.47310000      -2.23650000       1.32120000
C       -0.51090000      -0.70520000       1.30950000
C       -1.36710000      -0.71370000       0.03640000
H        0.94630000       1.82650000       0.46080000
H       -0.09030000       1.85120000      -0.97410000
H       -0.81370000       1.84260000       0.63940000
H        0.97270000      -0.19540000      -1.86820000
H        2.07290000      -0.40140000      -0.49190000
H       -0.62630000      -2.28640000      -2.18960000
H       -0.06750000      -3.70330000      -1.26830000
H       -2.08910000      -2.81940000      -0.12970000
H       -1.14000000      -2.63650000       2.08930000
H        0.50140000      -2.72350000       1.39760000
H       -0.63690000      -0.08740000       2.19210000
H       -2.27840000      -0.17160000      -0.18930000
