19
Properties=species:S:1:pos:R:3 gdb_91710=T pbc="F F F"
O        0.10170000       1.39290000      -0.28050000
C        0.04850000       0.00380000      -0.02140000
C        0.59620000      -0.44180000       1.36550000
C       -0.49600000      -1.41370000       1.88930000
C       -1.43600000      -0.76680000       2.91920000
C       -2.27360000       0.29470000       2.24660000
C       -2.25340000       0.45410000       0.92450000
C       -1.41730000      -0.47730000       0.07330000
O       -1.26630000      -1.73800000       0.72060000
H        1.02280000       1.64190000      -0.39940000
H        0.54780000      -0.55780000      -0.82300000
H        1.56590000      -0.93790000       1.27900000
H        0.71380000       0.43340000       2.00960000
H       -0.08120000      -2.34960000       2.27080000
H       -2.08030000      -1.53030000       3.37590000
H       -0.84960000      -0.33050000       3.73900000
H       -2.89040000       0.92970000       2.87710000
H       -2.81390000       1.24070000       0.43120000
H       -1.87310000      -0.65490000      -0.90350000
