12
Properties=species:S:1:pos:R:3 gdb_48107=T pbc="F F F"
O       -0.76120000       1.20220000       1.05270000
C        0.22910000       0.83620000       0.47600000
C        1.16840000       1.79870000      -0.25740000
O        2.15310000       1.37620000      -0.80890000
C        0.77210000       3.25050000      -0.24270000
O        1.80700000       4.18520000      -0.51910000
C        0.79850000       4.04740000      -1.50210000
C        1.17140000       3.46350000      -2.77290000
N        1.41930000       3.04010000      -3.81860000
H        0.55720000      -0.22080000       0.41620000
H        0.05110000       3.54300000       0.51640000
H        0.10220000       4.88080000      -1.58090000
