17
Properties=species:S:1:pos:R:3 gdb_38895=T pbc="F F F"
C       -0.03350000       1.47610000       0.03630000
O        1.41960000       1.47690000       0.11100000
C        1.48220000       0.08300000      -0.31140000
C        2.23730000      -0.90900000       0.57170000
C        1.57590000      -2.28490000       0.40140000
O        0.71380000      -2.73100000       1.45200000
C        0.11640000      -2.38640000       0.18470000
C       -0.67940000      -1.12350000       0.16580000
C       -0.00570000      -0.02190000      -0.12690000
H       -0.50230000       1.87000000       0.94540000
H       -0.39360000       2.04580000      -0.83170000
H        1.82470000       0.02400000      -1.35500000
H        3.30220000      -0.95790000       0.32690000
H        2.13870000      -0.59840000       1.61520000
H        2.20600000      -3.07300000      -0.00960000
H       -0.27800000      -3.24630000      -0.35610000
H       -1.72300000      -1.13880000       0.46510000
