17
Properties=species:S:1:pos:R:3 gdb_65871=T pbc="F F F"
C       -0.03100000       1.62030000       0.24950000
C        0.02740000       0.09560000       0.10420000
C        0.77940000      -0.38560000      -1.15570000
O        1.60640000      -1.47040000      -0.71670000
C        1.74840000      -1.42250000       0.64340000
N        2.58380000      -2.06850000       1.33720000
N        0.79520000      -0.55920000       1.14780000
C       -1.41150000      -0.45000000       0.14590000
O       -2.04760000      -0.78730000      -0.81600000
H        0.98080000       2.03230000       0.30720000
H       -0.54720000       2.06700000      -0.60550000
H       -0.57380000       1.90990000       1.15610000
H        0.09020000      -0.74670000      -1.92030000
H        1.41340000       0.40660000      -1.57040000
H        3.19450000      -2.61490000       0.73480000
H        0.93220000      -0.16660000       2.06330000
H       -1.82480000      -0.51230000       1.17800000
