19
Properties=species:S:1:pos:R:3 gdb_79453=T pbc="F F F"
C       -0.04380000       1.48720000       0.01040000
C        0.08650000      -0.03070000       0.06410000
C        1.07170000      -0.63550000      -0.96950000
O        2.31710000       0.04420000      -0.63210000
C        2.28750000      -0.78500000       0.53460000
C        1.54610000      -1.92720000      -0.19670000
C        0.65500000      -2.13640000       1.04500000
O        1.31650000      -2.87270000       2.05750000
C        0.86290000      -0.62360000       1.26480000
H        0.93800000       1.96260000       0.05370000
H       -0.53480000       1.80480000      -0.91650000
H       -0.64670000       1.85380000       0.84760000
H       -0.90350000      -0.49400000      -0.01830000
H        0.83380000      -0.61120000      -2.03270000
H        3.21110000      -0.84130000       1.10360000
H        2.03890000      -2.72590000      -0.75080000
H       -0.37870000      -2.48270000       0.91000000
H        1.41370000      -3.78070000       1.75250000
H        0.74090000      -0.17840000       2.25030000
