15
Properties=species:S:1:pos:R:3 gdb_131317=T pbc="F F F"
O        0.07930000       1.27710000      -0.00460000
C        0.06600000      -0.07090000       0.06280000
N        0.09100000      -0.81750000      -1.04270000
N        0.06620000      -2.07540000      -0.55130000
C        0.07350000      -3.37730000      -1.17970000
C        0.03140000      -4.27650000       0.04070000
C        0.00540000      -3.54260000       1.16820000
C        0.02740000      -2.13310000       0.80410000
C        0.02570000      -0.82470000       1.26040000
H        0.10800000       1.51050000      -0.94080000
H       -0.79550000      -3.51700000      -1.83500000
H        0.97610000      -3.53140000      -1.78450000
H        0.02460000      -5.35440000      -0.03380000
H       -0.02650000      -3.91740000       2.18110000
H        0.00020000      -0.45510000       2.27050000
