17
Properties=species:S:1:pos:R:3 gdb_83820=T pbc="F F F"
O        0.06990000       1.37390000       0.04180000
C       -0.04460000      -0.00300000      -0.04930000
C       -0.52690000      -0.76560000       1.16720000
O       -0.86370000       0.07220000       2.24080000
C       -2.26090000       0.16940000       2.52320000
C       -3.09050000       0.43900000       1.29340000
C       -2.67360000       0.04930000       0.09160000
C       -1.40380000      -0.70480000      -0.05860000
O       -1.47660000      -1.91350000      -0.77050000
H       -0.14980000       1.59470000       0.95870000
H        0.72230000      -0.46550000      -0.66580000
H       -0.07660000      -1.71530000       1.44500000
H       -2.60870000      -0.74780000       3.02640000
H       -2.35320000       0.98780000       3.24390000
H       -4.03550000       0.95530000       1.43310000
H       -3.25380000       0.24640000      -0.80600000
H       -1.43700000      -1.70500000      -1.71100000
