19
Properties=species:S:1:pos:R:3 gdb_85290=T pbc="F F F"
C        0.06010000       1.52830000      -0.09090000
C        0.00560000       0.01650000       0.05900000
O        0.59540000      -0.60220000      -1.10460000
C        1.33240000      -1.70840000      -0.77150000
O        1.70550000      -2.49620000      -1.59140000
C        1.55710000      -1.70980000       0.70510000
C        2.22880000      -0.44580000       1.22260000
C        0.73630000      -0.57210000       1.26890000
C       -0.00600000      -0.64520000       2.58010000
H        1.09300000       1.88450000      -0.12630000
H       -0.44400000       1.83750000      -1.01010000
H       -0.44400000       2.00740000       0.75430000
H       -1.04430000      -0.30710000       0.09540000
H        1.72090000      -2.65800000       1.19900000
H        2.76290000      -0.54560000       2.16120000
H        2.70100000       0.21650000       0.50450000
H       -0.22800000       0.35610000       2.96630000
H       -0.95580000      -1.18010000       2.46950000
H        0.58620000      -1.16540000       3.33850000
