13
Properties=species:S:1:pos:R:3 gdb_850=T pbc="F F F"
N        0.08460000       1.37380000       0.15340000
C       -0.06840000      -0.00280000       0.05980000
C       -1.15760000      -0.82330000       0.07510000
C       -0.63310000      -2.16530000       0.03930000
N       -1.41030000      -3.33030000       0.11930000
C        0.72100000      -2.05240000      -0.00330000
O        1.07590000      -0.70950000       0.01720000
H        0.92940000       1.69860000      -0.29960000
H       -0.72090000       1.88240000      -0.18330000
H       -2.19390000      -0.52910000       0.12580000
H       -2.26940000      -3.25760000      -0.41110000
H       -0.90790000      -4.15660000      -0.17870000
H        1.53690000      -2.75210000      -0.03330000
