17
Properties=species:S:1:pos:R:3 gdb_104776=T pbc="F F F"
O       -0.00370000       1.35590000      -0.66620000
C        0.04270000       0.06320000      -0.06340000
C       -1.35120000      -0.50280000       0.14910000
C       -2.28600000       0.33850000       1.00950000
O       -2.56660000       1.60430000       0.45450000
O       -1.94690000      -1.08730000      -1.01340000
C       -1.61320000      -1.96490000       0.06510000
C       -0.53840000      -2.97340000      -0.19730000
O       -0.38870000      -3.95840000       0.47840000
H       -0.39550000       1.25030000      -1.54160000
H        0.65450000      -0.61960000      -0.66330000
H        0.53790000       0.20200000       0.90280000
H       -3.24330000      -0.18180000       1.10850000
H       -1.84370000       0.41820000       2.01780000
H       -1.71790000       2.00280000       0.21880000
H       -2.45310000      -2.35660000       0.63870000
H        0.10000000      -2.75450000      -1.08000000
