17
Properties=species:S:1:pos:R:3 gdb_47510=T pbc="F F F"
O        0.16740000       0.60930000      -1.17210000
C        0.01930000       1.30930000      -0.20150000
C       -1.32320000       1.97120000       0.12390000
O       -1.26910000       2.76280000       1.29220000
C       -0.24510000       3.73840000       1.20790000
C        1.14050000       3.09060000       1.18330000
C        2.33440000       3.91490000       0.96170000
O        2.01520000       3.41720000       2.26590000
C        1.11070000       1.61240000       0.81230000
H       -1.64110000       2.55850000      -0.75380000
H       -2.07240000       1.19120000       0.29070000
H       -0.39170000       4.36030000       0.30920000
H       -0.32900000       4.37580000       2.09100000
H        3.21450000       3.47710000       0.49240000
H        2.23380000       4.99320000       0.83740000
H        0.85650000       1.05610000       1.72560000
H        2.07310000       1.25040000       0.44800000
