19
Properties=species:S:1:pos:R:3 gdb_67504=T pbc="F F F"
C       -0.15680000       1.40130000       0.14230000
C       -0.06740000      -0.09670000       0.12690000
C       -1.33860000      -0.96650000       0.34350000
C       -1.19550000      -2.41720000      -0.01040000
C       -0.54390000      -1.90310000       1.24310000
C        0.73210000      -1.04450000       1.02230000
C        1.13960000      -0.84270000      -0.41230000
C        1.26470000      -1.85140000      -1.52330000
O        1.19690000      -1.56500000      -2.69260000
H        0.83260000       1.85870000       0.24030000
H       -0.61010000       1.77970000      -0.78200000
H       -0.77300000       1.74890000       0.97990000
H       -2.30350000      -0.51080000       0.52680000
H       -2.09110000      -3.00510000       0.17300000
H       -0.64570000      -2.75600000      -0.88100000
H       -0.81460000      -2.27870000       2.22100000
H        1.39080000      -0.78340000       1.84210000
H        1.97620000      -0.14570000      -0.48900000
H        1.49920000      -2.89070000      -1.19940000
