21
Properties=species:S:1:pos:R:3 gdb_90461=T pbc="F F F"
C       -0.79980000       0.91940000      -0.02710000
C        0.30750000      -0.13420000       0.01800000
C        1.30380000      -0.04220000      -1.16990000
C        2.65290000      -0.48510000      -0.62940000
C        2.58300000      -0.49420000       0.87580000
C        1.18930000      -0.05700000       1.29410000
C        2.75720000      -1.81040000       0.12170000
C        1.77620000      -2.85400000       0.06990000
C        0.99490000      -3.76920000       0.02810000
H       -0.38190000       1.93300000      -0.00160000
H       -1.39840000       0.82850000      -0.94000000
H       -1.48040000       0.81790000       0.82520000
H       -0.15850000      -1.12190000      -0.00960000
H        0.96770000      -0.63420000      -2.02790000
H        1.39280000       0.99720000      -1.51170000
H        3.54790000      -0.16380000      -1.15150000
H        3.42560000      -0.17960000       1.48240000
H        1.24570000       0.97810000       1.65520000
H        0.77550000      -0.65920000       2.11010000
H        3.77420000      -2.19300000       0.16660000
H        0.29930000      -4.57020000      -0.00890000
