19
Properties=species:S:1:pos:R:3 gdb_17683=T pbc="F F F"
C        0.07900000       1.44370000      -0.46170000
N        0.18300000       0.02540000      -0.16060000
C        1.50550000      -0.54680000       0.03920000
C        0.54840000      -0.44200000       1.18640000
C        0.83080000       0.52480000       2.31940000
C       -0.21150000      -1.68550000       1.56150000
C       -0.04970000      -2.39760000       2.83600000
O       -1.19540000      -1.57710000       2.59570000
H        0.88290000       2.06690000      -0.04030000
H        0.09990000       1.56790000      -1.54940000
H       -0.88000000       1.82430000      -0.09640000
H        1.69860000      -1.50000000      -0.44920000
H        2.36070000       0.12950000       0.05900000
H        1.31330000       1.43650000       1.96440000
H       -0.09650000       0.79180000       2.83350000
H        1.50160000       0.07120000       3.05590000
H       -0.54080000      -2.25680000       0.69340000
H       -0.24130000      -3.46920000       2.87720000
H        0.64040000      -2.02520000       3.59050000
