19
Properties=species:S:1:pos:R:3 gdb_70258=T pbc="F F F"
C       -0.46680000       1.56210000       0.34450000
C       -0.00830000       0.14170000       0.13800000
C       -0.84300000      -1.03450000       0.61600000
C        0.51510000      -0.74820000       1.23070000
C        1.72240000      -1.48620000       0.68070000
C        1.55900000      -1.33150000      -0.85770000
N        0.85190000      -0.05430000      -1.01900000
C        2.83700000      -1.33510000      -1.58050000
N        3.83980000      -1.36250000      -2.15370000
H        0.39050000       2.24120000       0.37820000
H       -1.12290000       1.88840000      -0.47110000
H       -1.02990000       1.65800000       1.27730000
H       -1.71120000      -0.81340000       1.22780000
H       -0.96700000      -1.90560000      -0.02040000
H        0.55700000      -0.40020000       2.25660000
H        2.64140000      -0.99380000       1.01060000
H        1.78220000      -2.54010000       0.96510000
H        0.98280000      -2.18940000      -1.23720000
H        0.34520000      -0.01980000      -1.89790000
