19
Properties=species:S:1:pos:R:3 gdb_108382=T pbc="F F F"
C        0.09180000       1.50200000      -0.21130000
C       -0.03700000       0.01390000       0.14110000
C       -1.45960000      -0.46790000       0.08510000
C       -2.54580000      -0.17500000       1.12490000
C       -2.96710000      -1.65720000       0.95720000
N       -1.84980000      -1.92730000      -0.02270000
C       -2.06250000      -1.00130000      -1.17180000
C       -3.37650000      -0.63040000      -1.62890000
N       -4.43330000      -0.33150000      -1.99340000
H        1.13370000       1.82760000      -0.14600000
H       -0.26130000       1.70020000      -1.22830000
H       -0.49560000       2.12440000       0.47170000
H        0.57040000      -0.59330000      -0.53980000
H        0.35470000      -0.16650000       1.15010000
H       -2.12930000       0.04120000       2.11060000
H       -3.27650000       0.59560000       0.86910000
H       -2.80770000      -2.26730000       1.84690000
H       -3.96400000      -1.85420000       0.55610000
H       -1.36740000      -1.21150000      -1.97950000
