19
Properties=species:S:1:pos:R:3 gdb_23022=T pbc="F F F"
C        0.95190000       1.11150000      -0.04800000
C       -0.01080000      -0.01970000       0.17560000
N       -0.60530000      -0.30700000       1.27000000
O       -0.28610000       0.57740000       2.30920000
C       -0.36080000      -0.87340000      -1.00470000
N        0.75130000      -1.57890000      -1.67230000
C       -0.32340000      -2.35710000      -1.01840000
C        0.13070000      -3.21280000       0.13960000
O        0.78790000      -4.38040000      -0.33160000
H        1.80380000       0.74730000      -0.62890000
H        0.47470000       1.90900000      -0.63170000
H        1.29450000       1.53450000       0.89510000
H       -0.77030000       0.19810000       3.05000000
H       -1.10070000      -0.41250000      -1.66080000
H        0.62200000      -1.56110000      -2.68010000
H       -1.03910000      -2.85040000      -1.67450000
H        0.77420000      -2.62690000       0.80600000
H       -0.73190000      -3.55360000       0.72020000
H        1.54800000      -4.07420000      -0.83930000
