19
Properties=species:S:1:pos:R:3 gdb_109635=T pbc="F F F"
C       -0.47760000       1.15520000      -0.21780000
O        0.42360000       0.10170000       0.08700000
C        0.90390000      -0.55130000      -1.03150000
C        1.53900000      -1.87960000      -0.80220000
N        1.54280000      -2.40040000       0.52960000
C        0.17430000      -1.80660000      -1.55100000
C       -1.07420000      -2.29930000      -0.84360000
C        0.22530000      -2.01040000      -2.97100000
N        0.28380000      -2.16500000      -4.11770000
H       -0.00180000       1.90960000      -0.86020000
H       -1.37840000       0.78200000      -0.72120000
H       -0.75820000       1.61680000       0.73070000
H        1.34010000       0.10110000      -1.78890000
H        2.39010000      -2.10550000      -1.44220000
H        2.14150000      -3.21130000       0.60960000
H        1.84080000      -1.69870000       1.19670000
H       -1.00080000      -2.08420000       0.22180000
H       -1.96890000      -1.81940000      -1.25050000
H       -1.18240000      -3.38060000      -0.96730000
