14
Properties=species:S:1:pos:R:3 gdb_132905=T pbc="F F F"
C       -0.02880000       1.53060000       0.01780000
C       -0.00780000       0.03140000      -0.02090000
C       -0.04030000      -0.71060000      -1.14710000
O       -0.02090000      -2.04500000      -1.16510000
C        0.03670000      -2.76980000       0.03840000
N        0.05070000      -4.02470000      -0.09640000
N        0.07170000      -2.05150000       1.22440000
C        0.05040000      -0.77710000       1.16860000
F        0.08470000      -0.11240000       2.31510000
H        0.86570000       1.92990000       0.50680000
H       -0.07470000       1.94160000      -0.99400000
H       -0.89380000       1.90340000       0.57600000
H       -0.08530000      -0.29420000      -2.14780000
H        0.09300000      -4.45040000       0.82740000
