17
Properties=species:S:1:pos:R:3 gdb_47765=T pbc="F F F"
O        0.05560000      -0.03560000       0.04230000
C       -0.02170000       1.16540000      -0.00130000
C       -1.32530000       1.94100000      -0.04350000
C       -1.27380000       3.06970000      -1.09230000
C        0.01120000       3.87940000      -0.93590000
O        1.15730000       3.03980000      -1.04790000
C        1.25120000       2.05260000      -0.02600000
C        1.48840000       2.61810000       1.30570000
C        1.65170000       3.07460000       2.40620000
H       -2.14580000       1.24080000      -0.21540000
H       -1.46100000       2.38200000       0.95390000
H       -1.30110000       2.63870000      -2.09930000
H       -2.14730000       3.72310000      -0.99140000
H        0.11490000       4.61950000      -1.73340000
H        0.02290000       4.41010000       0.02790000
H        2.08590000       1.40550000      -0.30850000
H        1.81680000       3.47350000       3.37700000
