17
Properties=species:S:1:pos:R:3 gdb_27536=T pbc="F F F"
C       -0.00100000       1.43540000       0.08830000
C       -0.07050000      -0.04650000       0.00740000
N       -1.09270000      -0.81820000       0.20480000
C       -0.61550000      -2.11400000       0.00180000
C        0.69810000      -2.03870000      -0.31900000
O        1.06320000      -0.71610000      -0.31470000
C       -1.50200000      -3.28240000       0.12440000
C       -2.58660000      -3.27690000       1.14620000
N       -2.91740000      -3.15080000      -0.27770000
H        0.72420000       1.75410000       0.84400000
H        0.30930000       1.86670000      -0.86880000
H       -0.98490000       1.82320000       0.35240000
H        1.46670000      -2.75160000      -0.56090000
H       -1.04880000      -4.23110000      -0.15010000
H       -2.88870000      -4.21210000       1.60970000
H       -2.66390000      -2.39500000       1.77510000
H       -3.09000000      -2.16790000      -0.48380000
