17
Properties=species:S:1:pos:R:3 gdb_3406=T pbc="F F F"
C        0.17190000       1.64130000      -0.42380000
C        0.23330000       0.14270000      -0.22040000
C        1.48430000      -0.66430000      -0.35170000
O        2.61970000       0.05140000       0.14770000
C        2.09330000      -0.04160000       1.50800000
C        2.17740000       1.23850000       2.31560000
C        0.77470000      -0.61610000       0.98750000
H        1.16000000       2.08880000      -0.30250000
H       -0.17190000       1.86760000      -1.43900000
H       -0.52010000       2.12230000       0.27550000
H       -0.62600000      -0.39550000      -0.61950000
H        1.66840000      -1.46570000      -1.05880000
H        2.65000000      -0.83430000       2.02780000
H        1.58870000       2.04700000       1.88070000
H        1.81240000       1.05370000       3.33200000
H        3.21950000       1.56690000       2.38850000
H        0.19290000      -1.37530000       1.49380000
