22
Properties=species:S:1:pos:R:3 gdb_109869=T pbc="F F F"
C        0.02070000       1.60380000       0.06190000
C       -0.16200000       0.09380000      -0.12900000
C        0.68790000      -0.46550000      -1.26350000
C        2.27040000      -0.51240000      -1.10010000
O        2.82150000      -0.17890000       0.14550000
C        2.20780000      -2.01090000      -1.41970000
N        1.39010000      -2.56400000      -0.30270000
C        0.72110000      -1.98550000      -1.50150000
C       -0.23140000      -2.78850000      -2.33230000
H        1.06040000       1.83350000       0.30960000
H       -0.24220000       2.15470000      -0.84880000
H       -0.61380000       1.97970000       0.87080000
H        0.08610000      -0.43190000       0.79870000
H       -1.21780000      -0.12990000      -0.33410000
H        0.44690000       0.04540000      -2.20380000
H        2.78660000       0.08530000      -1.85380000
H        2.50750000      -0.86490000       0.75150000
H        2.93410000      -2.63290000      -1.93020000
H        1.38300000      -3.57800000      -0.40420000
H       -1.20700000      -2.88170000      -1.84120000
H       -0.39420000      -2.31400000      -3.30600000
H        0.15060000      -3.80000000      -2.51100000
