17
Properties=species:S:1:pos:R:3 gdb_35422=T pbc="F F F"
N       -0.02360000      -1.14100000       0.21930000
C       -0.01830000       0.01040000       0.11570000
C        0.01680000       1.46720000      -0.03890000
N       -0.38930000       2.22780000       1.16670000
C        0.83750000       3.08600000       1.08560000
C        1.78390000       2.91450000       2.24150000
C        2.74060000       2.03020000       1.96290000
C        2.63640000       1.44720000       0.57050000
C        1.41630000       2.17240000      -0.03680000
H       -0.55000000       1.71830000      -0.94420000
H       -1.27040000       2.71770000       1.06050000
H        0.63170000       4.12960000       0.82310000
H        1.65890000       3.43130000       3.18590000
H        3.52350000       1.72500000       2.64890000
H        3.54560000       1.62730000      -0.01540000
H        2.50180000       0.35850000       0.59850000
H        1.64310000       2.64680000      -0.99040000
