19
Properties=species:S:1:pos:R:3 gdb_80559=T pbc="F F F"
O       -0.13660000       1.46780000       0.08260000
C       -0.05170000       0.07880000       0.04080000
C       -1.30000000      -0.78000000       0.01350000
C       -2.65540000      -0.08280000      -0.03970000
C       -3.25630000      -0.01110000      -1.44890000
O       -4.32070000       0.93490000      -1.38720000
C       -2.22000000       0.37600000      -2.48330000
C       -0.93180000       0.03730000      -2.38530000
C       -0.40160000      -0.70030000      -1.21330000
H       -0.55990000       1.76790000      -0.73190000
H        0.79090000      -0.26670000       0.63140000
H       -1.26060000      -1.70510000       0.57920000
H       -3.36450000      -0.57830000       0.62830000
H       -2.55390000       0.94890000       0.31600000
H       -3.65750000      -1.00330000      -1.72040000
H       -4.79990000       0.90390000      -2.22130000
H       -2.58400000       0.92130000      -3.35190000
H       -0.23000000       0.31210000      -3.16990000
H        0.23040000      -1.55450000      -1.44030000
