13
Properties=species:S:1:pos:R:3 gdb_129296=T pbc="F F F"
N        0.14020000       1.29480000      -0.03670000
C       -0.06920000       0.05970000       0.03760000
O        0.94100000      -0.89480000      -0.11960000
N        1.52400000      -1.42910000       1.05440000
C        0.72250000      -1.97780000       1.89510000
C       -0.70610000      -2.24300000       1.83760000
C       -1.63730000      -1.68270000       1.04540000
C       -1.46270000      -0.52090000       0.15500000
O       -2.39540000      -0.04270000      -0.45140000
H        1.14090000       1.48310000      -0.13690000
H        1.25860000      -2.38280000       2.75150000
H       -1.02800000      -3.02440000       2.52120000
H       -2.66350000      -2.03380000       1.09600000
