17
Properties=species:S:1:pos:R:3 gdb_51188=T pbc="F F F"
N       -0.09990000       1.29790000      -0.00120000
C       -0.05570000       0.03910000      -0.05040000
O       -1.20020000      -0.67540000       0.05430000
C       -1.07990000      -2.06470000       0.03440000
C       -0.49240000      -2.83620000      -1.18330000
C       -1.42170000      -3.96280000      -0.73850000
C       -2.31130000      -3.04160000       0.00410000
N       -1.48260000      -4.01190000       0.77160000
C       -0.59460000      -2.89360000       1.23610000
H        0.83730000       1.68300000      -0.09940000
H        0.84090000      -0.58080000      -0.17700000
H       -0.83230000      -2.40060000      -2.12600000
H        0.58770000      -3.01510000      -1.21130000
H       -1.66040000      -4.88440000      -1.25170000
H       -3.38130000      -2.91920000       0.09820000
H        0.47140000      -3.13610000       1.31670000
H       -0.97630000      -2.52260000       2.19000000
