22
Properties=species:S:1:pos:R:3 gdb_82448=T pbc="F F F"
C        0.01620000       1.66080000      -0.10720000
C        0.11820000       0.14860000       0.04280000
C        1.12240000      -0.69460000      -0.77020000
C        2.52540000      -0.15690000      -0.45370000
C        2.25160000      -0.68950000       0.94590000
C        3.29650000      -1.04080000       1.96200000
N        1.24040000      -1.69080000       0.42860000
C        0.78700000      -0.50580000       1.24900000
C        0.17470000      -0.64960000       2.61050000
H        0.98270000       2.15510000       0.02690000
H       -0.36650000       1.93230000      -1.09750000
H       -0.67320000       2.07760000       0.63530000
H       -0.87450000      -0.30620000      -0.06670000
H        0.87000000      -1.07690000      -1.75790000
H        3.29710000      -0.76240000      -0.93890000
H        2.74520000       0.90450000      -0.60900000
H        3.73890000      -0.13550000       2.39430000
H        2.88480000      -1.63860000       2.77880000
H        4.10180000      -1.62100000       1.49870000
H        0.18730000       0.30530000       3.14890000
H       -0.86730000      -0.97730000       2.52820000
H        0.70540000      -1.38650000       3.21850000
