14
Properties=species:S:1:pos:R:3 gdb_35021=T pbc="F F F"
N        0.06560000      -1.16230000      -0.01360000
C        0.06830000      -0.00670000       0.00870000
C        0.03940000       1.43160000       0.04960000
C        0.43730000       2.23220000       1.27640000
C        1.62390000       1.58460000       1.99600000
N        2.38310000       1.48530000       0.70090000
C        1.32050000       2.25360000       0.03040000
C        1.56870000       3.27440000      -0.93410000
N        1.78530000       4.10940000      -1.70540000
H       -0.77740000       1.88120000      -0.50660000
H       -0.22480000       2.98840000       1.67550000
H        2.08340000       2.27680000       2.70590000
H        1.44960000       0.61850000       2.47670000
H        3.25480000       2.00260000       0.73190000
