20
Properties=species:S:1:pos:R:3 gdb_6563=T pbc="F F F"
C       -0.03140000       1.49030000      -0.00310000
C       -0.00570000      -0.01410000      -0.00700000
C        0.61700000      -0.96460000      -1.07330000
C        0.01850000      -1.92710000      -0.00390000
C        0.03090000      -3.43160000       0.00490000
C        0.63030000      -0.96090000       1.06140000
C       -1.22970000      -0.98630000      -0.03110000
O       -2.18220000      -0.99670000       0.99790000
H        0.97840000       1.90920000       0.06600000
H       -0.49440000       1.87680000      -0.91770000
H       -0.61110000       1.86650000       0.84720000
H        0.14870000      -0.97210000      -2.06310000
H        1.70760000      -0.95090000      -1.14790000
H        1.05090000      -3.82470000       0.07670000
H       -0.54030000      -3.81950000       0.85570000
H       -0.42100000      -3.83270000      -0.90900000
H        1.72230000      -0.94700000       1.13080000
H        0.20170000      -0.96470000       2.07070000
H       -1.80420000      -0.99510000      -0.96290000
H       -1.73100000      -0.98950000       1.84810000
