19
Properties=species:S:1:pos:R:3 gdb_36194=T pbc="F F F"
C       -0.01340000      -1.20790000       0.07230000
C       -0.04020000      -0.00660000       0.07500000
C       -0.04510000       1.45230000       0.09030000
C        1.35010000       2.04260000      -0.04850000
C        2.41200000       1.77870000       1.04810000
C        2.77440000       3.29820000       1.04500000
C        1.70220000       3.56340000      -0.04570000
C        2.17740000       3.30250000      -1.48290000
O        1.89420000       1.88680000      -1.37900000
H        0.00500000      -2.26930000       0.06040000
H       -0.67380000       1.83490000      -0.72280000
H       -0.48540000       1.80980000       1.03060000
H        1.99460000       1.42560000       1.99470000
H        3.19570000       1.08990000       0.72910000
H        2.55710000       3.79570000       1.99280000
H        3.79900000       3.54800000       0.75630000
H        0.98250000       4.36540000       0.11730000
H        1.56820000       3.77270000      -2.26550000
H        3.23680000       3.50170000      -1.68970000
