19
Properties=species:S:1:pos:R:3 gdb_92707=T pbc="F F F"
C       -0.37430000       1.50280000       0.07450000
C       -0.07580000       0.04130000      -0.02190000
C       -0.02770000      -0.72580000      -1.11620000
C        0.31820000      -2.16360000      -0.81940000
C        0.20630000      -2.25610000       0.72550000
O        1.16070000      -3.09130000       1.35090000
C        0.20540000      -0.78830000       1.18620000
C        0.94650000      -0.32660000       2.37320000
O       -0.47360000      -0.47380000       2.41180000
H        0.50600000       2.07070000       0.40140000
H       -0.69570000       1.90840000      -0.88800000
H       -1.15950000       1.68400000       0.81600000
H       -0.19470000      -0.36370000      -2.12550000
H       -0.33250000      -2.88130000      -1.33050000
H        1.34430000      -2.40490000      -1.13480000
H       -0.76270000      -2.68190000       1.00450000
H        2.03640000      -2.78520000       1.08980000
H        1.50310000      -1.05970000       2.95440000
H        1.31510000       0.69730000       2.42570000
