16
Properties=species:S:1:pos:R:3 gdb_125313=T pbc="F F F"
C       -0.05500000       1.55620000       0.01560000
C       -0.01310000       0.06280000      -0.02030000
C       -0.01240000      -0.77830000      -1.09270000
N        0.01390000      -2.06940000      -0.61440000
C        0.02180000      -3.21890000      -1.39750000
O        0.04560000      -4.34510000      -0.98560000
N        0.04050000      -2.10280000       0.75520000
C        0.01700000      -0.83200000       1.10890000
N       -0.04660000      -0.45250000       2.43590000
H        0.85020000       1.97980000       0.46950000
H       -0.14040000       1.97450000      -0.99040000
H       -0.90770000       1.91590000       0.60300000
H       -0.03410000      -0.57730000      -2.15290000
H        0.00400000      -2.94590000      -2.47010000
H        0.17600000      -1.20400000       3.07460000
H        0.44740000       0.39900000       2.65990000
