19
Properties=species:S:1:pos:R:3 gdb_35328=T pbc="F F F"
C       -0.87780000      -0.77680000      -1.16220000
C       -0.41880000       0.17650000      -0.58990000
C        0.14830000       1.30420000       0.11810000
C       -0.01450000       1.38060000       1.67180000
C        1.44400000       1.88360000       1.77110000
C        1.72910000       3.36400000       2.11110000
O        2.58120000       2.99520000       3.21250000
C        2.36840000       1.59080000       2.96310000
C        1.69580000       1.35710000       0.33950000
H       -1.28640000      -1.61380000      -1.67190000
H       -0.19360000       2.23970000      -0.33740000
H       -0.80350000       2.02980000       2.05950000
H       -0.12970000       0.38240000       2.10320000
H        2.27230000       3.93160000       1.34310000
H        0.86130000       3.95120000       2.44140000
H        1.89290000       1.08740000       3.81590000
H        3.30320000       1.06870000       2.71750000
H        2.12500000       0.35140000       0.34660000
H        2.27560000       1.98750000      -0.33920000
