14
Properties=species:S:1:pos:R:3 gdb_127894=T pbc="F F F"
C       -0.21670000       1.28990000       0.01050000
N       -0.60050000      -0.03440000      -0.41080000
C       -0.04670000      -1.07250000      -0.63810000
N        2.51690000       0.75830000      -2.50000000
N        3.15340000       0.61080000      -3.38280000
O        1.11060000      -1.96490000      -3.00110000
C        0.91960000      -2.66480000      -2.02880000
N        1.22330000      -3.98920000      -1.96590000
N        0.38120000      -2.22320000      -0.79100000
H        0.81300000       1.52120000      -0.27570000
H       -0.88730000       2.01940000      -0.44920000
H       -0.31750000       1.37520000       1.09730000
H        1.52690000      -4.44540000      -2.80790000
H        0.94260000      -4.53590000      -1.17170000
