18
Properties=species:S:1:pos:R:3 gdb_87650=T pbc="F F F"
C       -0.10460000       1.42530000      -0.16300000
C        0.02760000      -0.06540000       0.02320000
N        1.39420000      -0.63080000      -0.07700000
C        0.69090000      -0.68200000       1.19370000
C        1.12980000      -0.02500000       2.51290000
C        0.21790000      -1.05780000       3.20310000
O       -0.42200000      -1.06960000       4.21510000
C        0.17190000      -1.93910000       1.93720000
O       -1.00620000      -2.58820000       1.56510000
H        0.74730000       1.94820000       0.27940000
H       -0.13700000       1.67880000      -1.22760000
H       -1.02430000       1.79990000       0.29990000
H       -0.77380000      -0.66380000      -0.40900000
H        1.37000000      -1.54230000      -0.53020000
H        2.19090000      -0.17270000       2.73940000
H        0.86940000       1.02190000       2.68150000
H        0.96930000      -2.69530000       1.97680000
H       -1.74830000      -2.10060000       1.94070000
