16
Properties=species:S:1:pos:R:3 gdb_99512=T pbc="F F F"
C        0.18080000       1.43390000      -0.01650000
O       -0.16840000       0.06650000      -0.17120000
C        0.46120000      -0.55980000      -1.24300000
C        1.92150000      -0.70070000      -1.04110000
N        3.05930000      -0.77370000      -0.85540000
C       -0.18800000      -1.94750000      -1.43940000
O       -1.06780000      -2.39320000      -0.76340000
O        0.37530000      -2.54380000      -2.49700000
C       -0.11870000      -3.85940000      -2.80150000
H        1.24900000       1.55660000       0.20380000
H       -0.06710000       2.01280000      -0.91830000
H       -0.40650000       1.80710000       0.82340000
H        0.31900000      -0.00370000      -2.18580000
H        0.45440000      -4.19540000      -3.66450000
H        0.03550000      -4.52810000      -1.95180000
H       -1.18470000      -3.81990000      -3.03680000
