21
Properties=species:S:1:pos:R:3 gdb_106972=T pbc="F F F"
C        0.10620000       1.48770000       0.12980000
C        0.01110000      -0.00060000       0.00770000
C       -0.01630000      -0.72910000      -1.11430000
C       -0.14240000      -2.21240000      -0.84860000
C       -0.10290000      -2.31290000       0.68140000
C       -0.92370000      -3.38040000       1.35640000
O       -0.49070000      -4.69440000       1.02530000
C        1.15840000      -1.82560000       1.36110000
C       -0.02730000      -0.89100000       1.21250000
H        1.00540000       1.78520000       0.68400000
H        0.13250000       1.97070000      -0.85070000
H       -0.74910000       1.89430000       0.68480000
H        0.06060000      -0.32110000      -2.11670000
H       -1.08630000      -2.61710000      -1.24030000
H        0.65540000      -2.79480000      -1.32610000
H       -0.91980000      -3.22070000       2.44720000
H       -1.96670000      -3.32880000       1.02310000
H        0.44600000      -4.74680000       1.24370000
H        1.36380000      -2.21460000       2.35490000
H        2.03980000      -1.62230000       0.76090000
H       -0.55860000      -0.57730000       2.10630000
