20
Properties=species:S:1:pos:R:3 gdb_113756=T pbc="F F F"
C        1.17380000       1.32030000       0.73240000
C        0.56270000      -0.05450000       0.45120000
C       -0.94140000      -0.02810000       0.66930000
O       -1.55580000      -0.89530000       1.24740000
N        0.79530000      -0.39140000      -0.96240000
C        1.93300000      -1.27920000      -1.23850000
C        0.54600000      -1.74490000      -1.48820000
C       -0.09000000      -2.90900000      -0.73700000
O        0.28550000      -3.04080000       0.61820000
H        2.24950000       1.29360000       0.53760000
H        0.73190000       2.08000000       0.08080000
H        1.02300000       1.61330000       1.77650000
H        0.97790000      -0.80130000       1.13690000
H       -1.47170000       0.84800000       0.23910000
H        2.58280000      -0.98350000      -2.05800000
H        2.43750000      -1.71360000      -0.37760000
H        0.19080000      -1.70990000      -2.51940000
H       -1.18210000      -2.84030000      -0.83710000
H        0.21540000      -3.82750000      -1.25590000
H       -0.34720000      -2.51930000       1.13390000
