14
Properties=species:S:1:pos:R:3 gdb_32180=T pbc="F F F"
O        0.31520000       0.82840000      -0.88830000
C       -0.08790000       0.19050000       0.29160000
C       -1.44720000      -0.45600000       0.19230000
N       -1.92290000      -1.09230000       1.26700000
C       -3.12710000      -1.63240000       1.09020000
N       -3.86420000      -1.59300000      -0.01880000
C       -3.28510000      -0.93320000      -1.01650000
O       -3.97060000      -0.85750000      -2.15330000
N       -2.08350000      -0.34530000      -0.97310000
H       -0.40340000       0.70270000      -1.52340000
H        0.62970000      -0.59240000       0.58180000
H       -0.12060000       0.90000000       1.13270000
H       -3.55770000      -2.16190000       1.93710000
H       -3.43100000      -0.35480000      -2.77960000
