14
Properties=species:S:1:pos:R:3 gdb_16082=T pbc="F F F"
C       -0.04430000      -1.18800000      -0.00470000
C       -0.01670000       0.01520000      -0.00170000
C        0.00890000       1.43980000       0.00880000
C        0.40330000       2.26920000      -1.19330000
C        1.28150000       2.36060000       0.02590000
N        1.02440000       3.39730000       0.97880000
C       -0.15950000       3.20910000       1.43860000
N       -0.86920000       2.13810000       0.92740000
H       -0.06170000      -2.24970000      -0.00970000
H        0.80530000       1.71830000      -2.03550000
H       -0.22980000       3.11440000      -1.44320000
H        2.29330000       1.97460000      -0.02150000
H       -0.63110000       3.85760000       2.16960000
H       -1.48770000       1.59950000       1.51520000
