19
Properties=species:S:1:pos:R:3 gdb_90020=T pbc="F F F"
O       -0.03150000       1.47600000      -0.12670000
C       -0.01030000       0.07380000      -0.09170000
C        0.32560000      -0.53930000       1.30120000
C       -1.20390000      -0.68250000       1.55790000
C       -1.88020000      -1.69950000       2.51910000
C       -2.52240000      -0.53190000       3.33530000
C       -1.84110000       0.44300000       2.36920000
O       -1.80210000       1.64190000       2.26190000
C       -1.41270000      -0.59750000       0.01670000
H       -0.58300000       1.79770000       0.60510000
H        0.61750000      -0.24390000      -0.92700000
H        0.80060000      -1.52150000       1.21860000
H        0.90010000       0.09040000       1.98550000
H       -2.60300000      -2.35850000       2.03360000
H       -1.17640000      -2.31080000       3.08780000
H       -3.61470000      -0.47550000       3.32050000
H       -2.19080000      -0.42780000       4.37250000
H       -2.26180000      -0.01550000      -0.35090000
H       -1.43020000      -1.59630000      -0.42990000
