14
Properties=species:S:1:pos:R:3 gdb_64628=T pbc="F F F"
O       -0.08770000       1.44680000      -0.02890000
C        0.00120000       0.03720000       0.02350000
C        0.63930000      -0.50900000       1.30500000
C       -0.17570000      -1.33540000       1.95850000
C       -1.49380000      -1.43270000       1.25530000
O       -2.17200000      -0.15490000       1.20070000
C       -1.41800000      -0.56720000       0.07430000
C        0.72140000      -0.47980000      -1.16200000
N        1.30090000      -0.86790000      -2.08400000
H        0.80410000       1.81100000      -0.06650000
H        1.62790000      -0.19090000       1.61420000
H        0.04130000      -1.83260000       2.89550000
H       -2.13630000      -2.30370000       1.32400000
H       -1.96030000      -0.72530000      -0.85210000
