14
Properties=species:S:1:pos:R:3 gdb_127570=T pbc="F F F"
C       -0.17570000       1.40890000      -0.01750000
N        0.02930000      -0.03550000       0.01500000
N        0.19110000      -0.65500000      -1.15430000
C        0.37540000      -1.93270000      -1.17190000
C        0.41860000      -2.75750000       0.02960000
O        0.58380000      -3.93970000       0.09230000
O        0.24200000      -2.03710000       1.20970000
C        0.04570000      -0.68200000       1.24880000
N       -0.11360000      -0.03090000       2.31970000
H        0.61280000       1.91380000       0.54530000
H       -0.15350000       1.70730000      -1.06410000
H       -1.13600000       1.66310000       0.43680000
H        0.50440000      -2.41420000      -2.13210000
H       -0.07470000      -0.65110000       3.12560000
