15
Properties=species:S:1:pos:R:3 gdb_112236=T pbc="F F F"
O       -0.10130000       1.40820000      -0.29300000
C        0.02470000       0.00990000      -0.15100000
C       -1.30190000      -0.60140000       0.25490000
O       -2.30230000      -0.40920000      -0.80690000
C       -2.45690000      -1.76520000      -0.98990000
N       -3.15160000      -2.42980000      -1.78400000
C       -1.49590000      -2.14260000       0.14030000
C       -0.34470000      -2.96060000      -0.19920000
N        0.58270000      -3.59890000      -0.45890000
H       -0.73380000       1.56790000      -1.00290000
H        0.38960000      -0.47150000      -1.07020000
H        0.76580000      -0.16970000       0.63480000
H       -1.66980000      -0.16570000       1.18640000
H       -3.69620000      -1.83750000      -2.41220000
H       -2.01950000      -2.57700000       0.99540000
