20
Properties=species:S:1:pos:R:3 gdb_120665=T pbc="F F F"
C        0.54410000       1.24450000      -0.09000000
O        0.73660000      -0.14130000      -0.24810000
C       -0.03900000      -0.68530000      -1.29540000
C        0.18670000      -2.17460000      -1.32420000
N        0.02630000      -2.81750000      -2.64780000
C        1.34220000      -2.75850000      -2.02910000
C        2.58120000      -2.10810000      -2.63370000
O        3.39900000      -3.20500000      -2.15900000
C        2.26140000      -3.90280000      -1.61210000
H        0.82330000       1.80280000      -0.99770000
H       -0.50330000       1.48650000       0.15060000
H        1.18120000       1.57140000       0.73520000
H       -1.10900000      -0.46200000      -1.14270000
H        0.24580000      -0.25420000      -2.26870000
H       -0.17290000      -2.71050000      -0.44710000
H       -0.37640000      -3.74680000      -2.54930000
H        2.57950000      -2.03420000      -3.72810000
H        2.88260000      -1.15070000      -2.19300000
H        2.36110000      -4.08160000      -0.53390000
H        2.07950000      -4.85990000      -2.12220000
