14
Properties=species:S:1:pos:R:3 gdb_42630=T pbc="F F F"
O       -0.01130000       0.05780000       0.04710000
C       -0.02170000       1.24960000       0.09970000
C       -1.06130000       2.31510000       0.04630000
C       -0.45690000       3.52520000       0.69480000
C        0.92110000       3.19250000       1.24080000
C        1.06360000       2.34760000      -0.05280000
C        2.30690000       2.10980000      -0.70490000
C        3.35920000       1.89370000      -1.24480000
N       -0.09590000       3.22880000      -0.71320000
H       -2.10770000       2.24040000      -0.21740000
H       -1.08400000       4.37490000       0.93980000
H        1.57280000       4.06810000       1.20840000
H        1.02620000       2.67490000       2.19800000
H        4.28470000       1.69670000      -1.72750000
