16
Properties=species:S:1:pos:R:3 gdb_34135=T pbc="F F F"
N       -0.00140000      -1.13360000       0.03260000
C       -0.01840000       0.02310000       0.03540000
C       -0.03670000       1.46510000       0.03420000
C       -0.71660000       2.40520000       1.06080000
C       -0.05800000       3.34950000       0.02880000
C        1.21950000       2.43140000      -0.01930000
C        1.71510000       2.43510000      -1.45550000
C        0.59630000       2.42040000      -2.18300000
C       -0.51520000       2.40850000      -1.14720000
H       -1.80840000       2.38030000       1.08570000
H       -0.29600000       2.40030000       2.06900000
H       -0.06320000       4.44030000       0.01460000
H        1.91910000       2.42710000       0.81620000
H        2.74770000       2.43880000      -1.77300000
H        0.46760000       2.40870000      -3.25550000
H       -1.56240000       2.38120000      -1.44740000
