21
Properties=species:S:1:pos:R:3 gdb_88609=T pbc="F F F"
C        0.79230000       1.46980000      -0.37770000
C        0.23640000       0.08320000      -0.13790000
C        1.15700000      -1.10030000       0.00690000
C        0.37430000      -0.60490000       1.20540000
C        1.01660000       0.09130000       2.38380000
C        1.29950000      -0.65090000       3.72290000
C        2.47790000      -1.41480000       3.07640000
C        2.54860000       0.07980000       2.67880000
O        2.24000000       0.43590000       4.08250000
H        1.74290000       1.61930000       0.14340000
H        0.97170000       1.63920000      -1.44500000
H        0.10030000       2.24530000      -0.03040000
H       -0.69850000      -0.11190000      -0.65740000
H        0.87810000      -2.04750000      -0.44240000
H        2.22460000      -0.90250000      -0.01090000
H       -0.47850000      -1.21940000       1.48580000
H        0.58620000       1.07860000       2.57580000
H        0.59480000      -0.97830000       4.48890000
H        3.25130000      -1.73790000       3.77400000
H        2.25900000      -2.15110000       2.30220000
H        3.35460000       0.63100000       2.19180000
