22
Properties=species:S:1:pos:R:3 gdb_119591=T pbc="F F F"
C        0.18350000       1.61950000       0.09110000
C        0.23820000       0.09000000       0.07260000
C        0.45420000      -0.48230000      -1.33740000
C        0.51360000      -1.99050000      -1.37740000
N        1.73780000      -2.69920000      -0.88650000
C        1.35630000      -2.78630000      -2.31520000
C        0.61230000      -4.06690000      -2.67680000
C       -0.65290000      -3.96500000      -1.84750000
C       -0.71240000      -2.82660000      -1.15470000
H        1.11390000       2.05470000      -0.29120000
H       -0.63550000       1.99430000      -0.53300000
H        0.03060000       2.00090000       1.10540000
H        1.04210000      -0.26200000       0.73090000
H       -0.69170000      -0.31450000       0.49120000
H       -0.35250000      -0.13490000      -1.99730000
H        1.38630000      -0.07590000      -1.75390000
H        2.49040000      -2.01450000      -0.80820000
H        1.99490000      -2.30540000      -3.04950000
H        0.39270000      -4.11780000      -3.75160000
H        1.19650000      -4.96060000      -2.42610000
H       -1.39210000      -4.75780000      -1.81610000
H       -1.51620000      -2.53360000      -0.48950000
