17
Properties=species:S:1:pos:R:3 gdb_74967=T pbc="F F F"
C       -0.08140000       1.50240000       0.04680000
C       -0.02170000       0.01250000       0.00370000
C       -0.04180000      -0.81360000      -1.06390000
C        0.07660000      -2.24260000      -0.58900000
C        1.45760000      -2.40340000       0.09750000
O        1.39450000      -1.52310000       1.23670000
C        0.09170000      -0.88300000       1.21730000
C       -0.77500000      -2.05290000       0.70250000
O       -1.74860000      -2.60320000       1.11480000
H        0.83200000       1.91960000       0.48780000
H       -0.20200000       1.92580000      -0.95440000
H       -0.91760000       1.84840000       0.66650000
H       -0.11350000      -0.52170000      -2.10480000
H       -0.21590000      -3.03800000      -1.27010000
H        1.61820000      -3.43280000       0.44140000
H        2.28830000      -2.10600000      -0.55200000
H       -0.11290000      -0.46940000       2.20170000
