19
Properties=species:S:1:pos:R:3 gdb_78482=T pbc="F F F"
C       -0.08990000       1.42990000      -0.01660000
C        0.04480000      -0.07740000       0.02810000
C        1.40660000      -0.65940000      -0.21770000
C        0.77800000      -0.67370000       1.19450000
C        0.72090000      -2.20640000       1.15490000
O       -0.55450000      -2.81030000       0.98510000
C       -0.47560000      -3.51730000      -0.23850000
O        0.37540000      -2.78920000      -1.10380000
C        1.35050000      -2.19210000      -0.25950000
H        0.80190000       1.92290000       0.38530000
H       -0.23010000       1.78080000      -1.04430000
H       -0.94990000       1.76440000       0.57290000
H       -0.81180000      -0.62180000      -0.35880000
H        2.23080000      -0.06170000      -0.58690000
H        1.05080000      -0.08850000       2.06400000
H        1.29880000      -2.70440000       1.93970000
H       -0.07520000      -4.53320000      -0.07050000
H       -1.47330000      -3.57460000      -0.68320000
H        2.32410000      -2.68100000      -0.36360000
