21
Properties=species:S:1:pos:R:3 gdb_109711=T pbc="F F F"
C        0.02190000       1.18410000       0.39730000
O       -0.15430000       0.08760000      -0.47770000
C       -1.35070000      -0.59370000      -0.25710000
C       -1.47900000      -1.98550000      -0.84620000
C       -0.35790000      -2.61320000      -1.64580000
C       -1.36170000      -1.79850000       0.63940000
C       -0.28460000      -2.28830000       1.59790000
C       -1.47640000      -2.51290000       2.55560000
O       -2.42640000      -2.08860000       1.54880000
H        0.98590000       1.63810000       0.15560000
H       -0.77040000       1.93590000       0.26250000
H        0.02360000       0.87430000       1.45200000
H       -2.24510000       0.03330000      -0.26090000
H       -2.48500000      -2.21980000      -1.18750000
H        0.61790000      -2.28420000      -1.28140000
H       -0.39930000      -3.70630000      -1.58730000
H       -0.42450000      -2.33080000      -2.70150000
H        0.23240000      -3.19790000       1.28460000
H        0.45310000      -1.54740000       1.90910000
H       -1.65470000      -3.54710000       2.86920000
H       -1.50120000      -1.86000000       3.43600000
