19
Properties=species:S:1:pos:R:3 gdb_122054=T pbc="F F F"
C       -0.04590000       1.36130000       0.03450000
O        0.02950000      -0.04560000      -0.00210000
C        0.64460000      -0.53240000      -1.17010000
C        0.64590000      -2.05630000      -1.09210000
C        1.29900000      -2.71540000      -2.33270000
C        2.78380000      -2.38360000      -2.37110000
O        3.32710000      -1.78330000      -3.25940000
C        1.10830000      -4.22350000      -2.23100000
O        0.45760000      -4.87640000      -3.00130000
H        0.95280000       1.82420000       0.00330000
H       -0.63550000       1.75980000      -0.80580000
H       -0.53460000       1.63670000       0.97180000
H        0.09940000      -0.19840000      -2.06960000
H        1.67380000      -0.14390000      -1.25970000
H        1.17130000      -2.36530000      -0.18010000
H       -0.38700000      -2.40610000      -0.99650000
H        0.83570000      -2.37050000      -3.26040000
H        3.35310000      -2.73780000      -1.47990000
H        1.60820000      -4.69300000      -1.35280000
