14
Properties=species:S:1:pos:R:3 gdb_60515=T pbc="F F F"
O       -0.20280000       1.43030000      -0.12390000
C       -0.13080000       0.04260000      -0.02920000
C        0.40620000      -0.61680000      -1.30460000
C        0.44610000       0.13190000      -2.56360000
O        1.63220000      -0.08680000      -1.78900000
C        0.76720000      -0.34520000       1.14240000
O        1.40930000       0.47170000       1.75440000
C        0.81770000      -1.77470000       1.47780000
N        0.81890000      -2.90490000       1.72170000
H        0.53080000       1.78620000       0.39990000
H       -1.13280000      -0.37340000       0.16410000
H        0.32430000      -1.70430000      -1.32820000
H        0.39940000      -0.41090000      -3.50560000
H        0.08630000       1.15640000      -2.57040000
