13
Properties=species:S:1:pos:R:3 gdb_2759=T pbc="F F F"
N        0.32090000       1.40110000      -0.19920000
C        0.09330000       0.00920000       0.04270000
C       -0.06880000      -0.42750000       1.51230000
O       -1.24530000      -1.21400000       1.20010000
C       -1.32190000      -0.68750000      -0.13170000
C       -2.42370000       0.26090000      -0.31330000
N       -3.24530000       1.06110000      -0.46070000
H        0.43680000       1.59940000      -1.18680000
H       -0.44770000       1.97260000       0.13930000
H        0.85160000      -0.57470000      -0.48260000
H        0.72670000      -1.03850000       1.94830000
H       -0.30330000       0.40520000       2.18750000
H       -1.39290000      -1.48050000      -0.88410000
