20
Properties=species:S:1:pos:R:3 gdb_101494=T pbc="F F F"
C       -0.86090000       1.73080000       0.27310000
C       -0.44540000       0.26450000       0.14520000
C        0.52290000       0.00610000      -1.01830000
C        0.98940000      -1.45890000      -1.05050000
N       -0.15170000       0.33510000      -2.26940000
C        0.52560000       0.69880000      -3.28430000
N        1.89680000       0.80460000      -3.43490000
C       -0.20600000       1.00800000      -4.50310000
N       -0.75970000       1.27390000      -5.48210000
H        0.00580000       2.37470000       0.46520000
H       -1.34070000       2.07680000      -0.64670000
H       -1.56590000       1.87060000       1.09800000
H        0.02990000      -0.07450000       1.07390000
H       -1.33210000      -0.36190000      -0.00890000
H        1.40780000       0.65160000      -0.85840000
H        0.13170000      -2.12180000      -1.19680000
H        1.69610000      -1.63610000      -1.86660000
H        1.47730000      -1.72520000      -0.10780000
H        2.45030000       0.83430000      -2.59310000
H        2.23410000       1.38730000      -4.18500000
