18
Properties=species:S:1:pos:R:3 gdb_68802=T pbc="F F F"
C        0.02560000       1.56500000       0.10180000
C       -0.01450000       0.06580000       0.06530000
C        1.16610000      -0.78870000      -0.35860000
C        0.58840000      -0.96130000       1.01720000
O        1.29610000      -0.73500000       2.17640000
C       -0.70010000      -1.81020000       0.97170000
C       -1.28980000      -0.78020000      -0.06380000
C       -0.57780000      -3.20500000       0.57080000
N       -0.45300000      -4.30400000       0.23210000
H        0.99820000       1.91930000       0.45650000
H       -0.14460000       1.99260000      -0.89300000
H       -0.74140000       1.96620000       0.77350000
H        1.06800000      -1.55960000      -1.12000000
H        2.11540000      -0.26180000      -0.36460000
H        2.03390000      -1.35420000       2.21660000
H       -1.23000000      -1.74850000       1.92510000
H       -2.18470000      -0.29030000       0.32510000
H       -1.50250000      -1.18320000      -1.05740000
