19
Properties=species:S:1:pos:R:3 gdb_23150=T pbc="F F F"
C       -0.58820000       1.38790000      -0.59840000
N       -0.71940000      -0.08490000      -0.52900000
H       -1.51790000      -0.46300000      -1.09110000
H        0.11890000      -0.55720000      -0.87050000
C       -1.01150000      -0.72840000       0.90030000
C       -1.26930000      -2.14900000       0.70630000
N       -0.22740000      -2.96460000       1.00210000
O       -0.34260000      -4.18490000       0.73830000
C       -2.41810000      -2.59160000      -0.07610000
C       -3.69050000      -1.87900000      -0.22240000
O       -2.75360000      -1.72970000      -1.30050000
H       -0.40660000       1.70500000      -1.62700000
H       -1.51490000       1.83770000      -0.23840000
H        0.23910000       1.70710000       0.03810000
H       -0.11120000      -0.57220000       1.49740000
H       -1.83800000      -0.10900000       1.26750000
H       -2.38330000      -3.65070000      -0.31440000
H       -4.59430000      -2.42840000      -0.48600000
H       -3.88560000      -0.97860000       0.36230000
