20
Properties=species:S:1:pos:R:3 gdb_92767=T pbc="F F F"
C       -0.32250000       1.49430000      -0.01710000
C        0.07010000       0.02680000       0.04480000
C        0.93270000      -0.47170000      -1.14960000
N        2.22560000      -0.83770000      -0.56360000
C        2.12000000      -0.65460000       0.69150000
O        0.93920000      -0.19200000       1.18850000
C        3.16020000      -0.89740000       1.70660000
C        4.11020000      -2.06520000       1.51110000
C        4.61300000      -0.66850000       1.33300000
H        0.56250000       2.12130000      -0.16620000
H       -1.00870000       1.66390000      -0.85350000
H       -0.81940000       1.80810000       0.90510000
H       -0.81630000      -0.59660000       0.20050000
H        0.48710000      -1.33710000      -1.65330000
H        1.06390000       0.30980000      -1.90810000
H        2.85320000      -0.65880000       2.71710000
H        4.40400000      -2.61920000       2.39550000
H        3.95270000      -2.65900000       0.61880000
H        4.79370000      -0.32550000       0.32130000
H        5.25920000      -0.24390000       2.09300000
