16
Properties=species:S:1:pos:R:3 gdb_56949=T pbc="F F F"
O       -0.46430000       1.16340000       0.08360000
C        0.11210000      -0.11120000      -0.14010000
C        0.99660000      -0.08660000      -1.32600000
N        1.70890000      -0.03040000      -2.23400000
C        0.86240000      -0.65140000       1.06380000
C        0.08600000      -1.10100000       2.26450000
C        0.79930000      -2.13690000       1.41110000
C        0.04310000      -3.05090000       0.60470000
C       -0.58800000      -3.82060000      -0.07090000
H        0.24550000       1.79300000       0.25480000
H       -0.72730000      -0.77700000      -0.36390000
H        1.82440000      -0.17860000       1.24100000
H        0.48940000      -0.89250000       3.24840000
H       -0.99560000      -1.07260000       2.20030000
H        1.71560000      -2.54860000       1.82300000
H       -1.13970000      -4.50400000      -0.66790000
