18
Properties=species:S:1:pos:R:3 gdb_12009=T pbc="F F F"
C        0.12630000       1.50680000      -0.01480000
C       -0.02100000      -0.01190000       0.03230000
C       -1.48940000      -0.45480000       0.01420000
O        0.67030000      -0.53370000      -1.12290000
C        1.33600000      -1.75000000      -0.81130000
C        1.54330000      -1.72770000       0.68590000
O        2.12510000      -0.50230000       1.14760000
C        0.70400000      -0.65160000       1.21030000
H        1.18250000       1.77610000       0.04910000
H       -0.27880000       1.89330000      -0.95430000
H       -0.41300000       1.97780000       0.81310000
H       -1.97430000      -0.09220000      -0.89620000
H       -1.57340000      -1.54610000       0.03400000
H       -2.03360000      -0.05570000       0.87680000
H        0.73660000      -2.63350000      -1.08650000
H        2.27170000      -1.77820000      -1.38040000
H        1.80250000      -2.62690000       1.23800000
H        0.25980000      -0.65200000       2.20240000
