23
Properties=species:S:1:pos:R:3 gdb_92763=T pbc="F F F"
C       -0.12880000       1.51900000       0.02060000
C        0.06640000       0.00640000      -0.05880000
C        1.03550000      -0.46840000      -1.17370000
C        1.63870000      -1.72040000      -0.58920000
C        1.41880000      -1.83390000       0.72570000
C        0.62550000      -0.64270000       1.23360000
C        1.91700000      -2.91860000       1.59290000
C        2.28180000      -2.67380000       3.04650000
C        1.07380000      -3.50050000       2.71520000
H        0.82110000       2.02760000       0.22290000
H       -0.52600000       1.91860000      -0.91890000
H       -0.82850000       1.79150000       0.81840000
H       -0.90660000      -0.46030000      -0.25840000
H        0.52110000      -0.63520000      -2.12780000
H        1.81220000       0.28660000      -1.37440000
H        2.22290000      -2.42210000      -1.17610000
H        1.28890000       0.05350000       1.76940000
H       -0.17050000      -0.91000000       1.93860000
H        2.54400000      -3.63810000       1.07420000
H        3.16360000      -3.17120000       3.43470000
H        2.12090000      -1.67890000       3.44600000
H        0.09520000      -3.06940000       2.89380000
H        1.12010000      -4.57310000       2.86780000
