12
Properties=species:S:1:pos:R:3 gdb_1442=T pbc="F F F"
O        0.10170000       1.39180000       0.10860000
C       -0.02380000       0.01200000      -0.07830000
C       -1.48010000      -0.39540000       0.10960000
O       -2.37990000       0.38400000       0.24030000
C       -1.68970000      -1.92610000       0.13360000
C       -3.07050000      -2.32460000      -0.10240000
N       -4.15720000      -2.66110000      -0.29800000
H        1.01320000       1.64070000      -0.07040000
H        0.26910000      -0.31510000      -1.09270000
H        0.58960000      -0.57920000       0.62550000
H       -1.03310000      -2.41330000      -0.59650000
H       -1.37140000      -2.28870000       1.12000000
