20
Properties=species:S:1:pos:R:3 gdb_40659=T pbc="F F F"
C        0.24860000       1.55660000       0.01990000
C        1.53490000       0.75120000       0.09620000
C        1.99470000       0.44020000       1.47840000
C        1.11480000      -0.31720000       2.13760000
C       -0.06690000      -0.70550000       1.26890000
C        0.19230000       0.05470000      -0.03400000
N       -0.09590000      -2.15250000       1.02500000
C       -0.76930000      -2.95540000       2.04030000
C       -1.40590000      -2.72200000       0.71560000
H       -0.07970000       2.06460000       0.92150000
H        0.04230000       2.09020000      -0.90260000
H        2.24500000       0.81460000      -0.72060000
H        2.91690000       0.83270000       1.89270000
H        1.19330000      -0.62600000       3.17350000
H       -1.01690000      -0.37790000       1.73500000
H       -0.10430000      -0.42420000      -0.95920000
H       -0.30700000      -3.91000000       2.27440000
H       -1.20590000      -2.43940000       2.89480000
H       -2.26270000      -2.05000000       0.68850000
H       -1.41530000      -3.50280000      -0.03930000
