15
Properties=species:S:1:pos:R:3 gdb_15515=T pbc="F F F"
O       -0.18830000       0.01210000       0.14360000
C       -0.03790000       1.20260000       0.10420000
N        1.17520000       1.88210000       0.07360000
C        1.22930000       3.34590000      -0.01960000
C        2.66460000       3.68130000       0.42250000
C        3.46500000       2.44780000      -0.01180000
C        2.46410000       1.29450000       0.06480000
O        2.70630000       0.12060000       0.09940000
H       -0.88440000       1.92050000       0.09440000
H        1.04550000       3.67190000      -1.05160000
H        0.46890000       3.80270000       0.61890000
H        3.02000000       4.61460000      -0.01740000
H        2.69940000       3.78730000       1.51110000
H        3.80170000       2.52720000      -1.05280000
H        4.34080000       2.22740000       0.59970000
