20
Properties=species:S:1:pos:R:3 gdb_95035=T pbc="F F F"
C       -0.08840000       1.55080000       0.03290000
C        0.13220000       0.04080000      -0.03330000
C        1.06460000      -0.44650000      -1.16030000
C        1.39480000      -1.89370000      -0.76120000
C        1.54880000      -1.84220000       0.77550000
N        2.93960000      -1.55600000       1.18160000
C        2.91800000      -0.40920000       1.71820000
O        1.75250000       0.26890000       1.83330000
C        0.73690000      -0.58770000       1.23770000
H        0.85620000       2.07310000       0.20540000
H       -0.51900000       1.91940000      -0.90340000
H       -0.77140000       1.82070000       0.84520000
H       -0.84090000      -0.45220000      -0.17250000
H        0.60250000      -0.36870000      -2.14840000
H        1.97730000       0.16190000      -1.18000000
H        0.56140000      -2.55520000      -1.02550000
H        2.29730000      -2.28800000      -1.23280000
H        1.22970000      -2.77510000       1.24760000
H        3.77900000       0.11320000       2.12150000
H       -0.00840000      -0.77240000       2.01480000
