20
Properties=species:S:1:pos:R:3 gdb_63275=T pbc="F F F"
C       -0.04190000       1.54320000      -0.00730000
C       -0.02210000       0.01640000       0.02210000
C       -1.38950000      -0.58510000      -0.29480000
N        1.07690000      -0.57070000      -0.78310000
C        1.75330000      -1.14100000       0.27060000
O        2.76360000      -1.79120000       0.35090000
C        0.71250000      -0.61310000       1.23920000
C        0.97310000      -0.06650000       2.61160000
C        0.17270000      -1.33090000       2.44060000
H        0.94560000       1.94940000       0.22560000
H       -0.34310000       1.91060000      -0.99480000
H       -0.75890000       1.93600000       0.72150000
H       -1.72940000      -0.27880000      -1.29060000
H       -1.35060000      -1.67690000      -0.26420000
H       -2.13980000      -0.24470000       0.42690000
H        1.26590000      -0.55600000      -1.77430000
H        1.98770000      -0.14480000       2.98800000
H        0.44580000       0.83520000       2.90590000
H       -0.89680000      -1.28560000       2.61900000
H        0.63860000      -2.27580000       2.69990000
