19
Properties=species:S:1:pos:R:3 gdb_11036=T pbc="F F F"
C        0.01260000       1.48460000      -0.04000000
C       -0.03020000      -0.01880000       0.06200000
C       -1.30990000      -0.74770000      -0.34470000
C       -1.15930000      -2.17200000       0.22820000
C       -0.22410000      -2.02400000       1.45560000
O        0.60720000      -3.15430000       1.68190000
C        0.62340000      -0.80600000       1.14720000
N        1.23950000      -0.72010000      -0.18550000
H        0.97790000       1.86450000       0.30290000
H       -0.12470000       1.80810000      -1.07850000
H       -0.78060000       1.94350000       0.56090000
H       -2.16840000      -0.23540000       0.10660000
H       -1.47260000      -0.74070000      -1.42900000
H       -2.11950000      -2.62680000       0.48670000
H       -0.67570000      -2.84200000      -0.49040000
H       -0.81930000      -1.80590000       2.35780000
H        0.04250000      -3.89880000       1.91220000
H        1.19070000      -0.35080000       1.95390000
H        1.11450000      -1.58790000      -0.70080000
