18
Properties=species:S:1:pos:R:3 gdb_23377=T pbc="F F F"
C       -0.18480000       1.58470000      -0.04230000
C       -0.02780000       0.07350000      -0.00060000
C        1.20740000      -0.58900000      -0.65110000
C        2.15480000      -0.23490000       0.56730000
C        0.73370000      -0.58800000       1.17000000
C        1.11970000      -1.84750000       0.29900000
C        2.56230000      -1.68220000       0.67410000
N        3.53240000      -2.44840000       0.92690000
O        4.69990000      -1.69840000       1.23020000
H        0.75080000       2.09870000       0.20080000
H       -0.50020000       1.91840000      -1.03710000
H       -0.94490000       1.91940000       0.67220000
H       -0.97460000      -0.42350000      -0.24670000
H        1.51910000      -0.61580000      -1.69630000
H        2.73500000       0.67010000       0.71770000
H        0.49650000      -0.61360000       2.23460000
H        0.52160000      -2.74260000       0.14390000
H        5.34080000      -2.39710000       1.39730000
