16
Properties=species:S:1:pos:R:3 gdb_44615=T pbc="F F F"
O       -0.00480000       0.00790000       0.10950000
C        0.01430000       1.19180000      -0.02280000
O       -1.13000000       1.94480000      -0.12560000
C       -0.80330000       3.27110000      -0.50920000
C       -0.01910000       4.13630000       0.44850000
C        0.46110000       3.49100000       1.75790000
N        1.47560000       2.47640000       1.39320000
C        1.22240000       2.15460000      -0.02580000
C        0.67220000       3.42190000      -0.69930000
H       -1.55000000       3.69280000      -1.16970000
H       -0.19770000       5.20480000       0.41190000
H        0.89080000       4.23260000       2.43520000
H       -0.37050000       3.00660000       2.28100000
H        2.39840000       2.89470000       1.45480000
H        2.09010000       1.68850000      -0.48930000
H        1.14260000       3.89750000      -1.54920000
