19
Properties=species:S:1:pos:R:3 gdb_17705=T pbc="F F F"
C       -0.21550000       1.61360000      -0.07040000
C       -0.03970000       0.10600000      -0.01170000
C        1.20580000      -0.54660000      -0.62610000
C        2.14340000      -0.18880000       0.56780000
C        2.54130000      -1.66190000       0.66010000
C        2.96350000      -2.29170000       1.97230000
N        1.05900000      -1.78960000       0.29270000
C        0.73520000      -0.53140000       1.15100000
H        0.71360000       2.14010000       0.17180000
H       -0.52940000       1.93320000      -1.07000000
H       -0.98230000       1.94680000       0.63720000
H       -0.96620000      -0.42830000      -0.25200000
H        1.49080000      -0.67380000      -1.67330000
H        2.74130000       0.71700000       0.71720000
H        3.17520000      -2.02310000      -0.16080000
H        2.35930000      -1.93620000       2.81240000
H        2.86420000      -3.38100000       1.92150000
H        4.01170000      -2.05930000       2.19020000
H        0.44410000      -0.62910000       2.19810000
