20
Properties=species:S:1:pos:R:3 gdb_40303=T pbc="F F F"
C        0.59870000       1.54130000      -0.09560000
N        1.50120000       0.39470000      -0.22870000
C        0.04520000       0.15350000      -0.06260000
C       -0.39720000      -0.46670000       1.15530000
C       -0.79130000      -0.98770000       2.16930000
C       -1.27990000      -1.60520000       3.38410000
C       -2.23530000      -0.80160000       4.32790000
C       -3.02340000      -2.11320000       4.58210000
C       -2.39210000      -2.70230000       3.29360000
H        0.69520000       2.08850000       0.83680000
H        0.37780000       2.15210000      -0.96740000
H        1.74870000       0.25890000      -1.20590000
H       -0.50140000      -0.15250000      -0.95290000
H       -0.43690000      -1.99250000       3.96770000
H       -1.78000000      -0.29450000       5.18130000
H       -2.82200000      -0.07770000       3.75680000
H       -2.67170000      -2.63030000       5.47960000
H       -4.11240000      -2.04720000       4.62540000
H       -3.02530000      -2.53770000       2.41820000
H       -2.06470000      -3.74410000       3.30330000
