14
Properties=species:S:1:pos:R:3 gdb_34566=T pbc="F F F"
N        0.09030000      -1.11720000       0.11970000
C       -0.00330000       0.03550000       0.04320000
C       -0.06370000       1.44200000      -0.06330000
C       -1.12630000       2.26170000      -0.04980000
C       -0.51430000       3.65900000       0.00650000
O       -0.03170000       3.82200000       1.35730000
C        1.14630000       3.00450000       1.40260000
C        1.14960000       2.38310000      -0.02850000
O        0.65720000       3.51240000      -0.76030000
H       -2.17210000       2.01030000       0.05020000
H       -1.10450000       4.52330000      -0.28610000
H        2.02560000       3.63750000       1.55460000
H        1.07240000       2.26180000       2.20170000
H        2.09670000       2.02040000      -0.41800000
