12
Properties=species:S:1:pos:R:3 gdb_42388=T pbc="F F F"
O       -0.26820000      -0.17370000       0.00290000
C       -0.09960000       1.01790000       0.00560000
N        1.14680000       1.65760000      -0.00220000
C        2.41000000       1.05210000      -0.01450000
O        2.61100000      -0.13450000      -0.02060000
C        3.47640000       2.04460000      -0.01940000
C        4.37660000       2.84160000      -0.02370000
C       -1.19250000       1.98100000       0.01750000
C       -2.11410000       2.75310000       0.02750000
H        1.13300000       2.66770000       0.00150000
H        5.18400000       3.53350000      -0.02850000
H       -2.93990000       3.42290000       0.03670000
