19
Properties=species:S:1:pos:R:3 gdb_120600=T pbc="F F F"
O       -0.12930000       1.44850000       0.07570000
C       -0.07050000       0.04100000       0.24840000
C       -1.36370000      -0.54810000      -0.30630000
C       -1.39560000      -2.05630000      -0.18940000
C       -1.81060000      -2.73340000       1.09690000
C       -2.71520000      -2.79630000      -0.12640000
O       -3.85510000      -1.97790000      -0.13650000
C       -2.85640000      -4.04880000      -0.82470000
C       -3.00410000      -5.10020000      -1.39070000
H        0.68340000       1.82840000       0.42150000
H        0.79460000      -0.39010000      -0.28240000
H        0.03410000      -0.22960000       1.31150000
H       -2.21380000      -0.11040000       0.22300000
H       -1.46040000      -0.25050000      -1.35680000
H       -0.62870000      -2.57490000      -0.75830000
H       -1.30190000      -3.63660000       1.41300000
H       -2.17070000      -2.09480000       1.89700000
H       -4.56060000      -2.45470000       0.31480000
H       -3.12850000      -6.02170000      -1.90320000
