14
Properties=species:S:1:pos:R:3 gdb_20740=T pbc="F F F"
C       -0.03350000       1.46350000      -0.00940000
C       -0.00830000      -0.03070000      -0.00040000
N       -0.03810000      -0.64910000      -1.13640000
N       -0.01310000      -2.01120000      -1.07080000
C        0.03940000      -2.69510000       0.09610000
N        0.07150000      -2.14680000       1.26030000
C        0.04950000      -0.74240000       1.29930000
N        0.07630000      -0.05840000       2.38120000
H        0.85230000       1.85460000       0.50070000
H       -0.07610000       1.83750000      -1.03330000
H       -0.89330000       1.82560000       0.56280000
H       -0.03690000      -2.47630000      -1.96320000
H        0.05400000      -3.78000000      -0.00420000
H        0.11500000      -0.70170000       3.17540000
