20
Properties=species:S:1:pos:R:3 gdb_59188=T pbc="F F F"
C       -1.60470000      -0.43470000      -0.07450000
C       -0.13270000      -0.01600000      -0.05800000
C        0.02000000       1.50570000      -0.00070000
N        0.50000000      -0.59170000       1.14770000
C        2.02330000      -0.63240000       1.23350000
C        1.82300000      -1.74320000       2.29670000
C        0.80560000      -2.08670000       1.17810000
C        1.93270000      -1.75380000       0.16230000
O        2.33030000      -2.04550000      -0.92130000
H       -2.10850000      -0.10190000       0.83840000
H       -2.11610000       0.00700000      -0.93500000
H       -1.71210000      -1.52130000      -0.14670000
H        0.34280000      -0.37900000      -0.98400000
H       -0.43050000       1.90220000       0.91470000
H        1.07250000       1.80450000      -0.02010000
H       -0.47250000       1.97000000      -0.86020000
H        2.62920000       0.26920000       1.29080000
H        2.64590000      -2.43860000       2.46640000
H        1.35200000      -1.38370000       3.21230000
H        0.02350000      -2.84280000       1.17240000
