12
Properties=species:S:1:pos:R:3 gdb_131382=T pbc="F F F"
O       -0.03680000       1.32690000       0.00750000
C        0.03320000      -0.00290000       0.00400000
N        1.10730000      -0.73060000       0.00860000
N        0.66150000      -2.04840000      -0.06220000
C       -0.70250000      -2.08250000      -0.00400000
N       -1.70580000      -2.92230000       0.02350000
N       -2.83900000      -2.11460000       0.03020000
C       -2.49320000      -0.85370000       0.00720000
N       -1.11140000      -0.76690000      -0.01480000
H        0.86690000       1.67020000       0.01680000
H        1.28910000      -2.77720000       0.22910000
H       -3.15240000      -0.00310000      -0.00180000
