20
Properties=species:S:1:pos:R:3 gdb_75586=T pbc="F F F"
C        0.57540000       1.44040000      -0.10680000
C        0.10140000       0.00530000       0.00740000
C       -0.40630000      -0.58510000      -1.11030000
N       -0.87480000      -1.83340000      -1.38860000
C       -1.17780000      -2.90470000      -0.45690000
C       -0.12940000      -3.06860000       0.64040000
C       -0.18570000      -1.97990000       1.71320000
C        0.28810000      -0.57300000       1.34250000
O        0.81980000       0.09290000       2.22220000
H        1.63820000       1.52640000       0.14170000
H        0.42230000       1.83290000      -1.11650000
H        0.04710000       2.08860000       0.60010000
H       -0.42510000       0.03580000      -2.00390000
H       -1.28340000      -1.93440000      -2.30190000
H       -2.16480000      -2.75130000       0.00980000
H       -1.24430000      -3.82470000      -1.04690000
H       -0.31000000      -4.03620000       1.12140000
H        0.86800000      -3.12220000       0.18900000
H       -1.21880000      -1.88700000       2.07720000
H        0.41460000      -2.26630000       2.58070000
