19
Properties=species:S:1:pos:R:3 gdb_78685=T pbc="F F F"
C       -0.16830000       1.56840000      -0.02150000
C       -0.03380000       0.05320000      -0.01490000
O       -1.27610000      -0.56760000      -0.29400000
C        1.21210000      -0.59510000      -0.66980000
C        2.11000000      -0.28110000       0.57810000
C        2.58180000      -1.74740000       0.65060000
O        3.03250000      -2.28800000       1.86580000
C        1.10000000      -1.86380000       0.24780000
C        0.68760000      -0.63940000       1.15200000
H        0.76990000       2.06550000       0.23850000
H       -0.46470000       1.92490000      -1.01650000
H       -0.93870000       1.88310000       0.68960000
H       -1.64770000      -0.15840000      -1.08250000
H        1.53820000      -0.58350000      -1.71170000
H        2.67130000       0.63580000       0.76110000
H        3.31350000      -2.05260000      -0.10410000
H        2.39280000      -2.06620000       2.55130000
H        0.49500000      -2.74680000       0.05120000
H        0.38340000      -0.66550000       2.20050000
