17
Properties=species:S:1:pos:R:3 gdb_6013=T pbc="F F F"
C        0.25730000       1.55740000       0.11420000
C        0.09680000       0.03870000       0.01420000
C        0.43010000      -0.65130000       1.36110000
C       -1.36050000      -0.32280000      -0.30720000
O       -2.26240000       0.47280000      -0.33540000
C        0.94040000      -0.65930000      -1.07630000
N        1.67530000       0.13930000      -1.89550000
O        0.91680000      -1.87110000      -1.19710000
H        1.28640000       1.83000000       0.36880000
H       -0.03360000       2.05960000      -0.81330000
H       -0.39890000       1.94800000       0.89520000
H       -0.23570000      -0.28910000       2.15020000
H        0.32950000      -1.73400000       1.27000000
H        1.46100000      -0.42740000       1.65250000
H       -1.51840000      -1.40400000      -0.49700000
H        1.70760000       1.13780000      -1.80450000
H        2.21760000      -0.30500000      -2.61830000
