20
Properties=species:S:1:pos:R:3 gdb_121442=T pbc="F F F"
C        0.16490000       1.40800000       0.11060000
C        0.03500000      -0.10720000       0.27920000
C       -1.36770000      -0.61400000      -0.09010000
N       -1.43080000      -2.06800000      -0.05790000
C       -1.76830000      -2.71890000       0.97210000
O       -1.81750000      -4.07230000       0.98390000
C       -1.45190000      -4.72650000      -0.22920000
C       -2.19220000      -2.23390000       2.34020000
O       -2.07610000      -1.10080000       2.73160000
H        1.17150000       1.74780000       0.37270000
H       -0.02980000       1.71230000      -0.92390000
H       -0.54390000       1.94070000       0.75360000
H        0.77270000      -0.62360000      -0.34600000
H        0.24330000      -0.38690000       1.31750000
H       -2.10510000      -0.14310000       0.56850000
H       -1.59100000      -0.31190000      -1.12040000
H       -1.54370000      -5.79480000      -0.03010000
H       -2.11580000      -4.42650000      -1.04520000
H       -0.42610000      -4.47270000      -0.51230000
H       -2.62810000      -3.03590000       2.97080000
