21
Properties=species:S:1:pos:R:3 gdb_109582=T pbc="F F F"
C       -0.75650000       1.21800000      -0.29460000
C       -0.02180000      -0.10200000      -0.09930000
C        1.37430000      -0.29010000      -0.76630000
O        2.16010000       0.89310000      -0.83320000
C        1.83260000      -1.05670000       0.50400000
O        3.13680000      -0.77720000       0.96640000
C        0.61300000      -0.46780000       1.28610000
C        0.99760000       0.68810000       2.21070000
O        1.77210000       0.22220000       3.30190000
H       -0.12370000       2.07450000      -0.04680000
H       -1.08890000       1.33260000      -1.33320000
H       -1.64790000       1.26680000       0.33870000
H       -0.66680000      -0.92600000      -0.42470000
H        1.40610000      -0.82660000      -1.72270000
H        1.88240000       1.41840000      -1.58860000
H        1.74660000      -2.13940000       0.37530000
H        3.39440000       0.05370000       0.54290000
H        0.05530000      -1.20210000       1.87390000
H        1.52790000       1.47090000       1.64900000
H        0.09850000       1.14820000       2.63580000
H        2.55040000      -0.18880000       2.90170000
