11
Properties=species:S:1:pos:R:3 gdb_21547=T pbc="F F F"
N        0.07920000       1.38980000       0.16470000
C       -0.01190000       0.02390000       0.04760000
C       -1.10190000      -0.81090000       0.01070000
O       -0.62120000      -2.08200000      -0.04090000
N        0.76340000      -1.99710000      -0.03800000
N        1.10290000      -0.77520000       0.01300000
C       -2.47810000      -0.56450000       0.01370000
C       -3.65690000      -0.31350000       0.01210000
H        0.95860000       1.76730000      -0.15780000
H       -0.72060000       1.90290000      -0.17560000
H       -4.69810000      -0.10320000       0.01820000
