18
Properties=species:S:1:pos:R:3 gdb_39250=T pbc="F F F"
C       -0.00380000       1.40000000      -0.17640000
C        1.39300000       0.84210000       0.01210000
C        1.95680000       0.75260000       1.43370000
C        1.39070000      -0.56910000       2.02350000
C        0.04490000      -0.77740000       1.30920000
O       -0.20670000      -2.15180000       0.91510000
C       -0.25400000      -2.13670000      -0.44360000
N       -0.07420000      -1.04650000      -1.07330000
C        0.18780000      -0.07560000      -0.04740000
H       -0.47350000       1.93770000       0.64410000
H       -0.25490000       1.77060000      -1.16460000
H        2.07340000       0.89920000      -0.82900000
H        3.04960000       0.74960000       1.43480000
H        1.64340000       1.61280000       2.03710000
H        2.04100000      -1.40510000       1.74560000
H        1.31000000      -0.55850000       3.11390000
H       -0.81200000      -0.45400000       1.91020000
H       -0.44540000      -3.10290000      -0.89600000
