19
Properties=species:S:1:pos:R:3 gdb_52720=T pbc="F F F"
C       -0.01310000       1.47470000      -0.03810000
C        0.00940000       0.01940000      -0.04140000
C        0.03940000      -1.18360000      -0.05010000
C        0.04270000      -2.64470000      -0.03730000
C       -1.38550000      -3.20870000       0.03750000
O        0.72590000      -3.09170000      -1.21240000
C        1.25570000      -4.39970000      -1.09760000
C        2.02070000      -4.72340000      -2.29460000
C        2.65530000      -5.02030000      -3.26970000
H        0.99680000       1.88780000      -0.13520000
H       -0.61430000       1.86530000      -0.86630000
H       -0.44150000       1.86070000       0.89340000
H        0.60540000      -2.98650000       0.84860000
H       -1.95220000      -2.89630000      -0.84280000
H       -1.37460000      -4.30150000       0.08260000
H       -1.89120000      -2.83580000       0.93230000
H        1.90870000      -4.47310000      -0.21070000
H        0.45920000      -5.14960000      -0.96580000
H        3.21590000      -5.27380000      -4.13520000
