14
Properties=species:S:1:pos:R:3 gdb_31221=T pbc="F F F"
O        0.27660000       1.10300000      -0.61300000
C       -0.05610000       0.09950000       0.31960000
C       -1.41850000      -0.47820000       0.09210000
C       -2.17480000      -0.70370000      -1.02290000
N       -3.38190000      -1.30290000      -0.63940000
C       -3.28630000      -1.40520000       0.64010000
O       -2.12690000      -0.92790000       1.16520000
C       -1.83770000      -0.41400000      -2.36580000
C       -1.52630000      -0.17350000      -3.50460000
H        0.17420000       0.74070000      -1.50130000
H        0.69050000      -0.71300000       0.32920000
H       -0.03060000       0.56190000       1.31180000
H       -4.00050000      -1.81340000       1.33750000
H       -1.27240000       0.04070000      -4.51350000
