22
Properties=species:S:1:pos:R:3 gdb_59372=T pbc="F F F"
C        0.14990000       1.49880000      -0.15540000
C        0.09770000      -0.02290000       0.03760000
C        0.87600000      -0.44990000       1.28960000
C       -1.34520000      -0.52060000       0.09140000
C       -2.23750000      -0.37710000      -1.17400000
C       -2.81650000      -1.80620000      -0.90300000
C       -1.61340000      -2.05210000       0.06810000
C       -4.11210000      -1.79820000      -0.24120000
N       -5.13860000      -1.78540000       0.29190000
H        1.18360000       1.85010000      -0.23570000
H       -0.37940000       1.80970000      -1.06200000
H       -0.31160000       2.01610000       0.69410000
H        0.57430000      -0.49320000      -0.83610000
H        0.44070000      -0.00280000       2.19120000
H        0.86760000      -1.53700000       1.41960000
H        1.92100000      -0.12900000       1.23190000
H       -1.85340000      -0.07100000       0.95310000
H       -2.95410000       0.44430000      -1.21080000
H       -1.64610000      -0.37700000      -2.09430000
H       -2.87220000      -2.46940000      -1.76940000
H       -0.81800000      -2.59940000      -0.44630000
H       -1.83770000      -2.55210000       1.01110000
