14
Properties=species:S:1:pos:R:3 gdb_3747=T pbc="F F F"
C       -0.14300000       1.39580000       0.06440000
N        0.02220000      -0.03870000      -0.00080000
C        0.40700000      -0.81540000      -1.03200000
N        0.43050000      -2.08460000      -0.67540000
C        0.03790000      -2.03880000       0.63330000
C       -0.09280000      -3.25290000       1.48990000
N       -0.22010000      -0.81720000       1.08380000
H        0.10190000       1.82240000      -0.91010000
H       -1.17570000       1.64670000       0.31980000
H        0.52160000       1.81930000       0.82180000
H        0.65450000      -0.41530000      -2.00450000
H        0.86330000      -3.78090000       1.56120000
H       -0.41930000      -2.97290000       2.49280000
H       -0.81750000      -3.95250000       1.06180000
