19
Properties=species:S:1:pos:R:3 gdb_30734=T pbc="F F F"
C       -0.12500000       1.42400000      -0.17340000
N       -0.08370000       0.08750000       0.41560000
C       -1.17730000      -0.74330000       0.23630000
C       -1.28470000      -2.09460000       0.05210000
C       -0.19150000      -3.09950000      -0.13150000
C       -2.70510000      -2.35730000       0.04240000
N       -3.26560000      -3.62140000      -0.20600000
C       -3.33330000      -1.16390000       0.20580000
O       -2.38970000      -0.15610000       0.32070000
H        0.78890000       1.95560000       0.10230000
H       -0.21680000       1.42040000      -1.27030000
H       -0.97520000       1.97200000       0.23660000
H        0.77980000      -0.40170000       0.22710000
H        0.05610000      -3.64420000       0.79020000
H       -0.47320000      -3.84610000      -0.88270000
H        0.73560000      -2.62930000      -0.47990000
H       -2.81760000      -4.35360000       0.33200000
H       -4.26100000      -3.64670000      -0.02400000
H       -4.36160000      -0.84920000       0.22770000
