18
Properties=species:S:1:pos:R:3 gdb_113030=T pbc="F F F"
C       -0.08790000       1.54840000      -0.12260000
C        0.10410000       0.03080000      -0.00400000
N        0.70780000      -0.59620000      -1.16300000
C        0.07100000      -0.66090000      -2.47650000
C        1.23400000      -1.26130000      -3.33970000
N        2.45540000      -1.19010000      -2.50010000
C        2.04280000      -0.82670000      -1.34110000
C        0.96380000      -2.65330000      -3.72990000
N        0.72470000      -3.74090000      -4.03840000
H        0.86950000       2.05390000      -0.28180000
H       -0.75250000       1.80700000      -0.95240000
H       -0.53570000       1.94210000       0.79500000
H        0.74290000      -0.19720000       0.85580000
H       -0.86150000      -0.45250000       0.19040000
H       -0.82240000      -1.29120000      -2.46350000
H       -0.21180000       0.33590000      -2.83770000
H        1.38260000      -0.68750000      -4.25970000
H        2.71060000      -0.71190000      -0.49140000
