19
Properties=species:S:1:pos:R:3 gdb_76127=T pbc="F F F"
C       -0.09660000       1.65940000       0.06690000
C        0.05980000       0.14590000       0.07730000
C        1.15340000      -0.55970000      -0.79970000
C        2.09770000       0.28490000      -1.52240000
N        2.83760000       0.97630000      -2.08100000
N        1.71720000      -1.30050000       0.39080000
C        2.16130000      -0.25370000       1.34070000
C        0.71730000      -0.55150000       1.27610000
C       -0.04370000      -1.22740000       2.37730000
H        0.85100000       2.17200000       0.25080000
H       -0.47670000       2.00530000      -0.89960000
H       -0.80840000       1.97270000       0.83790000
H       -0.90420000      -0.32390000      -0.13930000
H        0.72850000      -1.28370000      -1.49800000
H        2.71390000      -0.67280000       2.17560000
H        2.57590000       0.67250000       0.95130000
H       -0.47720000      -0.48700000       3.05970000
H       -0.86080000      -1.83750000       1.97760000
H        0.61350000      -1.87890000       2.96020000
