9
Properties=species:S:1:pos:R:3 gdb_21778=T pbc="F F F"
O        0.09780000       0.00560000       0.00270000
C       -0.00110000       1.18380000       0.00960000
O       -1.14980000       1.91860000       0.02950000
N       -0.83370000       3.29050000       0.03150000
C        0.45570000       3.31840000       0.01280000
O        1.04200000       2.09210000      -0.00110000
C        1.25560000       4.47650000       0.00690000
C        1.94960000       5.45680000       0.00170000
H        2.56030000       6.32720000      -0.00290000
