18
Properties=species:S:1:pos:R:3 gdb_80464=T pbc="F F F"
C        0.59520000       1.52100000       0.06040000
C        0.16320000       0.05750000       0.03910000
N        0.73250000      -0.72300000      -1.07910000
C        1.14290000      -2.04470000      -0.60020000
C        2.47610000      -1.96950000       0.06180000
O        3.23040000      -0.82200000      -0.09720000
C        1.18790000      -2.00230000       0.91970000
C        0.57870000      -0.70080000       1.31630000
O        0.36260000      -0.30820000       2.43520000
H        1.68530000       1.59800000       0.10180000
H        0.24100000       2.05180000      -0.82790000
H        0.18280000       2.00610000       0.94910000
H       -0.93720000       0.00640000       0.02510000
H        0.09380000      -0.79790000      -1.85780000
H        0.81190000      -2.90780000      -1.16670000
H        3.07480000      -2.87180000       0.14360000
H        2.76440000      -0.31320000      -0.78480000
H        1.03460000      -2.85910000       1.56330000
