19
Properties=species:S:1:pos:R:3 gdb_102885=T pbc="F F F"
C        0.11630000       1.53020000      -0.55560000
C       -0.19470000       0.15880000       0.05140000
C       -1.62280000      -0.33900000      -0.25660000
N       -1.78210000      -0.62970000      -1.68420000
C       -3.16120000      -0.91900000      -2.09880000
C       -4.11150000       0.18150000      -1.89590000
C       -4.84840000       1.11540000      -1.71800000
C       -1.89980000      -1.56390000       0.51550000
N       -2.12100000      -2.51280000       1.13650000
H        1.10300000       1.87140000      -0.23030000
H        0.13280000       1.51040000      -1.65030000
H       -0.61710000       2.28100000      -0.24190000
H        0.51620000      -0.59210000      -0.30790000
H       -0.08740000       0.20870000       1.13940000
H       -2.34130000       0.42230000       0.09680000
H       -1.44750000       0.17300000      -2.20620000
H       -3.13830000      -1.19560000      -3.15860000
H       -3.50210000      -1.80820000      -1.55570000
H       -5.51680000       1.92690000      -1.56630000
