23
Properties=species:S:1:pos:R:3 gdb_110199=T pbc="F F F"
C        0.18770000       1.35460000       0.15570000
C        0.09450000      -0.14500000       0.06820000
C        0.56540000      -1.06260000      -1.10200000
C       -0.03750000      -2.03570000      -0.04250000
C       -0.13690000      -3.53620000      -0.13730000
C        0.74010000      -1.19860000       1.02110000
C       -1.21290000      -1.00830000       0.08060000
C       -2.15350000      -0.99960000       1.26910000
O       -2.82350000       0.25940000       1.26210000
H        1.23180000       1.68750000       0.15200000
H       -0.32050000       1.82670000      -0.69220000
H       -0.28990000       1.72050000       1.06960000
H        0.02290000      -0.96950000      -2.04840000
H        1.64570000      -1.13140000      -1.26450000
H        0.85530000      -3.98890000      -0.24210000
H       -0.60420000      -3.96380000       0.75710000
H       -0.73540000      -3.83810000      -1.00410000
H        1.83170000      -1.27280000       0.98240000
H        0.39360000      -1.23470000       2.05600000
H       -1.80990000      -0.90380000      -0.83410000
H       -2.87410000      -1.82780000       1.16610000
H       -1.62230000      -1.15200000       2.21880000
H       -3.45900000       0.26450000       1.98400000
