13
Properties=species:S:1:pos:R:3 gdb_18844=T pbc="F F F"
O       -0.00890000       0.04980000       0.01520000
C       -0.02780000       1.24340000       0.09530000
C       -1.10720000       2.27120000       0.01550000
C       -0.71670000       3.55740000       0.70890000
C        0.31340000       3.52730000       1.79570000
C        1.37980000       2.87260000       1.33880000
C        1.05300000       2.35220000      -0.03820000
N       -0.07420000       3.25350000      -0.57230000
H       -2.09350000       2.11950000      -0.40770000
H       -1.46930000       4.34090000       0.67860000
H        0.16950000       3.96640000       2.77300000
H        2.28370000       2.62050000       1.87620000
H        1.86850000       2.17140000      -0.73630000
