21
Properties=species:S:1:pos:R:3 gdb_68667=T pbc="F F F"
C        0.00350000       1.53470000       0.03010000
C        0.00010000       0.00970000      -0.00050000
C        0.64720000      -0.62000000      -1.26020000
C        0.11780000      -2.06570000      -1.14760000
C        0.88430000      -2.78300000      -0.00300000
C        1.10560000      -1.87810000       1.18840000
C        0.70990000      -0.60400000       1.20610000
C       -1.32080000      -1.79780000      -0.72460000
C       -1.39160000      -0.63660000      -0.07430000
H        1.02650000       1.92690000       0.02400000
H       -0.52200000       1.94580000      -0.83800000
H       -0.49060000       1.91380000       0.93230000
H        0.26200000      -0.14140000      -2.16680000
H        1.73920000      -0.54700000      -1.25360000
H        0.20320000      -2.64030000      -2.07450000
H        0.34100000      -3.68490000       0.31470000
H        1.85480000      -3.14010000      -0.37600000
H        1.59350000      -2.31550000       2.05660000
H        0.86250000       0.01740000       2.08540000
H       -2.12760000      -2.50970000      -0.85850000
H       -2.26100000      -0.22000000       0.42260000
