21
Properties=species:S:1:pos:R:3 gdb_68215=T pbc="F F F"
C       -0.14260000       1.47150000      -0.00030000
C        0.06910000      -0.01500000       0.03500000
C        1.03340000      -0.80520000      -0.89590000
C        0.71750000      -1.93070000       0.13890000
C        0.70530000      -0.80170000       1.21710000
C       -0.77470000      -2.07620000      -0.09260000
C       -1.44510000      -3.08320000      -0.96770000
C       -1.67940000      -3.08070000       0.54120000
O       -1.18820000      -0.70950000      -0.15910000
H        0.80520000       1.99720000       0.14590000
H       -0.56520000       1.77610000      -0.96280000
H       -0.83680000       1.77910000       0.78800000
H        0.71670000      -0.95150000      -1.93120000
H        2.06610000      -0.45500000      -0.84300000
H        1.30810000      -2.84080000       0.23210000
H        1.70560000      -0.45120000       1.47880000
H        0.08950000      -0.94490000       2.10800000
H       -2.25600000      -2.73000000      -1.59510000
H       -0.85010000      -3.88250000      -1.39850000
H       -1.24350000      -3.87840000       1.13470000
H       -2.64220000      -2.72590000       0.89200000
