19
Properties=species:S:1:pos:R:3 gdb_79968=T pbc="F F F"
C       -0.24050000       1.57720000       0.00160000
C        0.03640000       0.06620000      -0.04450000
C        0.92170000      -0.40630000      -1.18190000
C        1.88610000      -1.23620000      -0.76570000
C        1.88490000      -1.38770000       0.71740000
C        2.16300000      -0.09810000       1.48390000
O        2.81080000       1.00090000       0.92060000
C        0.73820000      -0.49750000       1.20000000
O       -0.06790000      -0.93120000       2.25580000
H        0.68380000       2.14560000       0.12630000
H       -0.74010000       1.91330000      -0.91290000
H       -0.90100000       1.81700000       0.84210000
H       -0.93240000      -0.45100000      -0.12170000
H        0.74400000      -0.11640000      -2.21210000
H        2.61060000      -1.72780000      -1.40540000
H        2.12390000      -2.33490000       1.18730000
H        2.47260000      -0.24090000       2.51530000
H        2.79340000       0.88150000      -0.03860000
H       -0.24200000      -0.17560000       2.82790000
