18
Properties=species:S:1:pos:R:3 gdb_126842=T pbc="F F F"
C       -0.18890000       1.47070000       0.12920000
C        0.10590000      -0.02570000       0.04070000
N        0.79360000      -0.52260000       1.22230000
N        2.04120000      -0.94240000       1.19930000
N        2.34290000      -1.29360000       2.43050000
C        1.22540000      -1.05360000       3.16540000
N        1.15240000      -1.24670000       4.51740000
C        2.12440000      -2.11030000       5.16980000
N        0.22140000      -0.56930000       2.43060000
H        0.73790000       2.04440000       0.21500000
H       -0.71620000       1.79580000      -0.77220000
H       -0.81560000       1.68780000       0.99720000
H       -0.81920000      -0.59910000      -0.07050000
H        0.76380000      -0.25910000      -0.79820000
H        0.20760000      -1.29800000       4.86550000
H        3.13230000      -1.76300000       4.93480000
H        1.97730000      -2.04790000       6.25030000
H        2.04940000      -3.16230000       4.85980000
