11
Properties=species:S:1:pos:R:3 gdb_21815=T pbc="F F F"
O       -0.06950000      -0.06360000       0.00030000
C       -0.03860000       1.13770000       0.00850000
N        1.15230000       1.86700000       0.00010000
C        2.44680000       1.37160000      -0.01840000
N        3.32620000       2.31520000      -0.02140000
N        2.59130000       3.48080000      -0.00440000
C        1.23070000       3.29030000       0.00920000
O        0.32060000       4.08270000       0.02550000
H       -0.91350000       1.80530000       0.02330000
H        2.66190000       0.31600000      -0.02850000
H        3.05790000       4.37130000      -0.00350000
