15
Properties=species:S:1:pos:R:3 gdb_29737=T pbc="F F F"
C        0.01140000       1.44070000       0.03320000
N        0.02480000      -0.01160000       0.02050000
C        0.12060000      -0.78380000      -1.09070000
O        0.19560000      -0.14930000      -2.28070000
C        0.12130000      -2.12330000      -0.74080000
C        0.02200000      -2.16460000       0.66710000
C       -0.03570000      -0.86130000       1.12890000
C       -0.14140000      -0.36360000       2.43960000
N       -0.22910000       0.06470000       3.51550000
H        0.97290000       1.84240000      -0.29980000
H       -0.77370000       1.81810000      -0.62660000
H       -0.18210000       1.77680000       1.05200000
H        0.24540000      -0.80820000      -2.98030000
H        0.18460000      -2.95960000      -1.41900000
H       -0.00790000      -3.04360000       1.29090000
