19
Properties=species:S:1:pos:R:3 gdb_111322=T pbc="F F F"
C       -0.03490000       1.37580000      -0.33100000
O       -0.04350000       0.11170000       0.29650000
C       -1.25930000      -0.56360000       0.17710000
C       -1.67960000      -1.13290000      -1.19250000
O       -0.71750000      -2.13030000      -1.56160000
C       -1.74260000      -2.49660000      -0.64080000
C       -1.27800000      -2.03740000       0.75500000
C        0.04190000      -2.58930000       1.25940000
O       -2.34580000      -2.24150000       1.66080000
H        0.94600000       1.82110000      -0.15040000
H       -0.19210000       1.29490000      -1.41640000
H       -0.81020000       2.03930000       0.08350000
H       -2.09110000       0.00250000       0.62550000
H       -2.25240000      -0.67700000      -1.99190000
H       -2.39230000      -3.32840000      -0.88610000
H        0.80750000      -2.50280000       0.48700000
H        0.38500000      -2.02530000       2.13410000
H       -0.07570000      -3.64010000       1.54200000
H       -2.06510000      -1.92470000       2.52620000
