13
Properties=species:S:1:pos:R:3 gdb_18540=T pbc="F F F"
O       -0.01890000       0.02220000      -0.52030000
C       -0.02050000       1.15240000      -0.14060000
C       -1.12060000       2.14720000       0.28490000
C       -0.00860000       3.18210000       0.62300000
N        0.26870000       3.30150000       2.05980000
C        1.29690000       2.59350000       2.28230000
O        1.91630000       1.94120000       1.25900000
C        1.10330000       2.20700000       0.10450000
H       -1.78200000       2.42450000      -0.54250000
H       -1.73140000       1.82910000       1.13410000
H       -0.11600000       4.16390000       0.16110000
H        1.77110000       2.45120000       3.24660000
H        1.74490000       2.45150000      -0.74370000
