19
Properties=species:S:1:pos:R:3 gdb_113505=T pbc="F F F"
C       -0.41210000       1.48610000       0.27970000
C        0.29600000       0.18330000      -0.11420000
C        0.99200000      -0.45850000       1.05940000
O        0.17020000      -1.14060000       2.01240000
C        1.06080000      -1.92290000       1.24220000
C        0.69920000      -3.07460000       0.28640000
C        2.01610000      -3.80550000       0.69880000
C        2.24090000      -2.72270000       1.78050000
O        3.00780000      -2.58170000       2.68660000
H        0.29850000       2.22110000       0.67240000
H       -0.91500000       1.93360000      -0.58230000
H       -1.16190000       1.29680000       1.05330000
H       -0.42750000      -0.52440000      -0.53240000
H        1.04200000       0.38170000      -0.89480000
H        1.78970000       0.12770000       1.52090000
H       -0.20360000      -3.60400000       0.59820000
H        0.61100000      -2.80770000      -0.76800000
H        1.90870000      -4.81890000       1.09250000
H        2.79900000      -3.80870000      -0.06470000
