19
Properties=species:S:1:pos:R:3 gdb_32986=T pbc="F F F"
C       -0.09550000       1.56380000      -0.00700000
C       -0.14600000       0.03900000      -0.12090000
C        0.83280000      -0.51160000      -1.17520000
C        0.81080000      -2.01570000      -1.24840000
C        0.24290000      -2.70120000      -2.32890000
N        0.19410000      -4.03110000      -2.39920000
C        0.72390000      -4.69190000      -1.36860000
C        1.29390000      -4.02350000      -0.28830000
N        1.34090000      -2.69360000      -0.22130000
H        0.90570000       1.90660000       0.27650000
H       -0.35210000       2.04340000      -0.95820000
H       -0.79850000       1.92720000       0.74880000
H        0.09350000      -0.42120000       0.84420000
H       -1.16430000      -0.28230000      -0.37370000
H        0.59480000      -0.09060000      -2.15890000
H        1.84920000      -0.18940000      -0.92010000
H       -0.18330000      -2.15080000      -3.16490000
H        0.69590000      -5.77770000      -1.40530000
H        1.72640000      -4.57540000       0.54310000
