16
Properties=species:S:1:pos:R:3 gdb_62375=T pbc="F F F"
C       -0.10230000       1.52110000      -0.01090000
C       -0.03280000      -0.00660000      -0.00450000
C       -1.33230000      -0.58370000      -0.34130000
N       -2.37820000      -0.99550000      -0.61210000
C        1.26040000      -0.62830000      -0.68120000
O        1.99350000      -0.21440000       0.51230000
C        0.77880000      -0.64230000       1.20120000
C        0.73850000      -2.14060000       0.86580000
C        1.06940000      -2.13100000      -0.42730000
H        0.87520000       1.93290000       0.24220000
H       -0.40380000       1.88770000      -0.99660000
H       -0.84140000       1.87490000       0.71390000
H        1.66360000      -0.25820000      -1.62220000
H        0.67920000      -0.28680000       2.22530000
H        0.47920000      -2.95040000       1.53010000
H        1.16380000      -2.93050000      -1.14580000
