20
Properties=species:S:1:pos:R:3 gdb_15159=T pbc="F F F"
C       -0.53260000       1.28410000      -0.36800000
C        0.30840000       0.07510000       0.08110000
C        1.09830000      -0.50660000      -0.99970000
C        1.74270000      -0.96310000      -1.90970000
C        2.51850000      -1.54980000      -3.00050000
C        2.04400000      -2.94090000      -3.39740000
C        0.91800000      -3.10500000      -4.38150000
C        2.33030000      -3.46350000      -4.78110000
H        0.10850000       2.07940000      -0.75800000
H       -1.23180000       0.99800000      -1.15840000
H       -1.10690000       1.68510000       0.47280000
H        0.97410000       0.37780000       0.89990000
H       -0.35360000      -0.69250000       0.50280000
H        2.47330000      -0.89280000      -3.87990000
H        3.57860000      -1.59280000      -2.71480000
H        2.08300000      -3.66440000      -2.58850000
H        0.20630000      -3.90780000      -4.22460000
H        0.48370000      -2.20580000      -4.80650000
H        2.84230000      -2.80520000      -5.47590000
H        2.58640000      -4.51100000      -4.89570000
