17
Properties=species:S:1:pos:R:3 gdb_85501=T pbc="F F F"
C       -0.75510000       1.32540000       0.10880000
C        0.05660000       0.04130000      -0.05090000
C        1.31000000       0.14480000      -0.92830000
C        2.20790000      -0.97380000      -0.41420000
O        3.15070000      -1.48440000      -0.93580000
O        1.75210000      -1.37270000       0.81610000
C        0.67420000      -0.55300000       1.25210000
C        1.18370000       0.53860000       2.18830000
O        2.31080000       0.95520000       2.17380000
H       -0.13850000       2.15210000       0.47690000
H       -1.17200000       1.63040000      -0.85530000
H       -1.59250000       1.18970000       0.80150000
H       -0.59250000      -0.73930000      -0.46390000
H        1.12830000       0.02460000      -1.99700000
H        1.83190000       1.09700000      -0.77920000
H       -0.03870000      -1.18310000       1.79420000
H        0.41510000       0.94870000       2.88080000
