15
Properties=species:S:1:pos:R:3 gdb_55996=T pbc="F F F"
N       -0.07480000       1.32080000       0.00040000
C        0.07330000      -0.01580000       0.20300000
O        0.98380000      -0.54900000       0.78800000
O       -1.00380000      -0.67270000      -0.33210000
C       -0.99370000      -2.07770000      -0.21750000
C       -2.15530000      -2.71720000       0.57200000
O       -2.55710000      -3.45210000      -0.62740000
C       -1.60870000      -2.81050000      -1.40000000
N       -1.37990000      -2.84550000      -2.62910000
H        0.73000000       1.89440000       0.18410000
H       -0.74590000       1.63980000      -0.67760000
H        0.00030000      -2.42160000       0.07060000
H       -1.89100000      -3.39660000       1.38430000
H       -2.92920000      -2.01120000       0.88160000
H       -2.03280000      -3.46120000      -3.11690000
