20
Properties=species:S:1:pos:R:3 gdb_89113=T pbc="F F F"
C        0.20000000       1.28720000      -0.35060000
C        0.25670000      -0.15490000       0.10340000
C        1.55290000      -0.85800000       0.30350000
N        0.69120000      -0.55120000       1.44850000
C        1.14210000       0.46300000       2.39100000
C        1.70080000      -0.21010000       3.63870000
O        2.89530000      -0.93840000       3.33210000
C        2.79920000      -2.27530000       3.19370000
O        3.72440000      -2.95510000       2.86350000
H        1.09300000       1.84980000      -0.06800000
H        0.11520000       1.32780000      -1.44140000
H       -0.67390000       1.80090000       0.06590000
H       -0.58540000      -0.75300000      -0.24300000
H        1.66870000      -1.91110000       0.06230000
H        2.46080000      -0.26770000       0.18760000
H        1.90610000       1.14360000       1.98410000
H        0.28310000       1.07400000       2.69590000
H        1.97670000       0.53580000       4.38940000
H        0.94890000      -0.88380000       4.06650000
H        1.78830000      -2.65870000       3.42630000
