16
Properties=species:S:1:pos:R:3 gdb_44300=T pbc="F F F"
O       -0.02090000      -0.05780000       0.05900000
C       -0.02240000       1.14930000      -0.02670000
N       -1.13930000       1.96850000      -0.08920000
C       -0.75520000       3.35970000       0.03990000
C       -0.02830000       3.75440000       1.34640000
C        1.18780000       4.25520000       0.60490000
C        1.25560000       2.91930000       1.29970000
C        1.15860000       2.11760000      -0.02860000
C        0.64630000       3.45720000      -0.63310000
H       -2.03570000       1.60650000       0.19970000
H       -1.51880000       4.05570000      -0.30600000
H       -0.44810000       4.10380000       2.28050000
H        1.77490000       5.15500000       0.70490000
H        1.78610000       2.64210000       2.20020000
H        2.09750000       1.70650000      -0.39240000
H        0.75510000       3.69640000      -1.68800000
