17
Properties=species:S:1:pos:R:3 gdb_41252=T pbc="F F F"
C        0.03760000       1.50480000      -0.09930000
O        1.47220000       1.40230000       0.19230000
C        1.24730000       0.06940000       0.74800000
C        1.85820000      -1.22430000       0.19530000
N        1.95730000      -1.01220000      -1.27010000
C        0.49560000      -0.94060000      -1.23800000
C        0.41130000      -1.93550000      -0.07880000
N       -0.71160000      -1.18600000       0.61630000
C       -0.03590000      -0.02310000      -0.03980000
H       -0.49390000       2.03670000       0.69960000
H       -0.14810000       1.98540000      -1.06510000
H        1.13720000       0.10330000       1.83470000
H        2.68680000      -1.72360000       0.69520000
H        2.41000000      -0.12550000      -1.49440000
H       -0.08590000      -0.98690000      -2.16050000
H        0.35720000      -3.01880000      -0.15690000
H       -1.55390000      -1.44910000       0.09910000
