18
Properties=species:S:1:pos:R:3 gdb_115524=T pbc="F F F"
C       -0.12570000       1.59050000      -0.10660000
C       -0.04840000       0.06350000       0.02350000
C        1.21270000      -0.57110000      -0.63760000
O        1.80520000      -0.84400000       0.64330000
C        0.58140000      -0.51210000       1.34000000
C        0.86640000       0.37380000       2.53920000
O        1.69680000      -0.31830000       3.45090000
C       -1.31750000      -0.54890000      -0.35000000
N       -2.32490000      -1.03380000      -0.64460000
H        0.84380000       2.04220000       0.11480000
H       -0.40510000       1.86400000      -1.12790000
H       -0.87270000       2.01130000       0.57150000
H        1.01440000      -1.48660000      -1.20590000
H        1.81760000       0.11520000      -1.23950000
H        0.07270000      -1.42370000       1.67820000
H        1.32510000       1.31970000       2.21840000
H       -0.06500000       0.60650000       3.06670000
H        2.48680000      -0.57910000       2.96260000
