17
Properties=species:S:1:pos:R:3 gdb_64839=T pbc="F F F"
C        0.05080000       1.64510000      -0.18210000
C       -0.00620000       0.10110000      -0.12450000
C        0.82150000      -0.56030000      -1.25850000
C        1.93580000      -1.35050000      -0.54390000
O        2.82360000      -1.95830000      -1.09100000
C        1.69620000      -1.21400000       0.91100000
C        0.63340000      -0.43720000       1.13860000
C       -1.47420000      -0.30120000      -0.21990000
O       -2.09390000      -0.87260000       0.63770000
H        1.09090000       1.98190000      -0.21060000
H       -0.45370000       2.01960000      -1.07920000
H       -0.43200000       2.09200000       0.69260000
H        0.23390000      -1.25670000      -1.86700000
H        1.26160000       0.16680000      -1.94610000
H        2.32240000      -1.69710000       1.64990000
H        0.23030000      -0.18430000       2.11240000
H       -1.95530000      -0.00410000      -1.18120000
