20
Properties=species:S:1:pos:R:3 gdb_77752=T pbc="F F F"
C        0.94990000       1.81930000      -0.78120000
C        0.72260000       0.34300000      -0.54600000
N        1.85110000      -0.64900000      -0.51540000
C        2.89150000      -0.02270000       0.28080000
O        4.01240000       0.24870000      -0.02350000
C        2.06320000       0.03120000       1.57440000
C        2.00350000       1.26550000       2.46620000
C        0.89740000      -0.44400000       0.69310000
C       -0.06000000      -1.52120000       1.11160000
H        1.80190000       2.22060000      -0.23080000
H        1.13710000       1.99430000      -1.84560000
H        0.05680000       2.38720000      -0.49960000
H       -0.06830000      -0.05510000      -1.18050000
H        2.39740000      -0.82630000       2.17440000
H        1.61330000       2.14150000       1.94400000
H        1.36480000       1.08370000       3.33660000
H        3.00570000       1.50900000       2.83220000
H       -0.78560000      -1.13250000       1.83570000
H       -0.61600000      -1.90950000       0.25370000
H        0.46880000      -2.35690000       1.58210000
