23
Properties=species:S:1:pos:R:3 gdb_111237=T pbc="F F F"
C       -1.66540000      -0.15180000      -0.13210000
C       -0.15340000       0.00860000       0.07170000
C        0.65470000      -0.55270000      -1.08960000
C        2.20110000      -0.58250000      -1.10830000
C        2.80130000      -0.95330000       0.25270000
C        2.40160000      -2.40870000       0.61380000
C        1.06960000      -2.85890000      -0.04430000
C        0.84830000      -2.07040000      -1.34020000
O        2.14750000      -1.78130000      -1.93960000
H       -1.99470000       0.34820000      -1.04950000
H       -1.94710000      -1.20730000      -0.21450000
H       -2.22750000       0.27750000       0.70280000
H        0.08660000       1.07460000       0.18290000
H        0.13860000      -0.46430000       1.01550000
H        0.31400000      -0.09730000      -2.02580000
H        2.72930000       0.23770000      -1.60330000
H        3.89260000      -0.87400000       0.21570000
H        2.46380000      -0.23540000       1.00930000
H        3.19000000      -3.06830000       0.24490000
H        2.36460000      -2.54500000       1.69860000
H        1.11390000      -3.93110000      -0.26120000
H        0.21320000      -2.71450000       0.62490000
H        0.17760000      -2.57360000      -2.04240000
