15
Properties=species:S:1:pos:R:3 gdb_28955=T pbc="F F F"
O       -0.06610000       1.29370000       0.40130000
C        0.02940000      -0.01460000       0.05890000
C        0.11710000      -0.71950000      -1.11130000
N        0.19030000      -2.07070000      -0.82920000
C        0.14700000      -2.16750000       0.47220000
N        0.05110000      -0.93420000       1.08100000
C       -0.04040000      -0.63000000       2.48920000
C       -1.43110000      -0.14860000       2.90900000
O       -1.64580000       0.38290000       3.96280000
H       -0.07860000       1.82520000      -0.40060000
H        0.13210000      -0.34300000      -2.12230000
H        0.18680000      -3.07800000       1.05180000
H        0.18780000      -1.53970000       3.05500000
H        0.69140000       0.13000000       2.77840000
H       -2.23210000      -0.34860000       2.16300000
