16
Properties=species:S:1:pos:R:3 gdb_15035=T pbc="F F F"
N       -2.35390000       1.33390000      -0.05050000
C       -2.33530000       0.07000000      -0.18540000
N       -1.17570000      -0.69020000      -0.06120000
C        0.04260000      -0.07820000       0.22370000
O        1.08380000      -0.68150000       0.34380000
C       -1.18190000      -2.13050000      -0.22000000
C       -2.31390000      -2.99630000       0.25650000
C       -2.04780000      -2.83370000      -1.22690000
H       -3.29780000       1.68900000      -0.18060000
H       -3.21270000      -0.54250000      -0.40940000
H       -0.06420000       1.00920000       0.32360000
H       -0.17430000      -2.49640000      -0.07930000
H       -2.06340000      -3.93570000       0.73620000
H       -3.19690000      -2.51590000       0.66440000
H       -2.75420000      -2.24530000      -1.80280000
H       -1.61260000      -3.66030000      -1.77720000
