23
Properties=species:S:1:pos:R:3 gdb_106699=T pbc="F F F"
C        0.07750000       1.49190000      -0.26260000
C       -0.00850000       0.01520000       0.14910000
C       -1.42060000      -0.51040000       0.15940000
C       -2.12300000      -1.00700000      -1.08580000
C       -1.93200000      -1.96690000       0.06600000
C       -1.15270000      -3.24820000      -0.05320000
C       -2.95600000      -1.66930000       1.14010000
C       -2.29200000      -1.16800000       2.39690000
C       -2.45110000      -0.22430000       1.23240000
H        1.11240000       1.84810000      -0.24800000
H       -0.31830000       1.64190000      -1.27250000
H       -0.50260000       2.12420000       0.41800000
H        0.60120000      -0.58890000      -0.53490000
H        0.43430000      -0.10950000       1.14620000
H       -3.11530000      -0.64450000      -1.34330000
H       -1.47940000      -1.17930000      -1.94530000
H       -0.29430000      -3.13440000      -0.72360000
H       -0.77570000      -3.57800000       0.92130000
H       -1.77630000      -4.05550000      -0.45670000
H       -3.98880000      -2.00190000       1.13490000
H       -2.95570000      -0.99000000       3.23840000
H       -1.30620000      -1.53000000       2.67820000
H       -3.05630000       0.67310000       1.30500000
