18
Properties=species:S:1:pos:R:3 gdb_84226=T pbc="F F F"
C        0.05720000       1.72090000      -0.14310000
C        0.16740000       0.23930000       0.03060000
C        0.82220000      -0.79860000      -0.77930000
C        1.82530000      -1.54760000       0.13250000
O        3.12380000      -0.99530000       0.00480000
C        1.05050000      -1.49470000       1.45140000
C        0.03240000      -0.61910000       1.29750000
C       -1.27790000      -1.17020000       0.75560000
N       -0.72990000      -0.75320000      -0.62180000
H        0.94410000       2.23160000       0.24790000
H       -0.04270000       1.96900000      -1.20370000
H       -0.81570000       2.11870000       0.38570000
H        1.06300000      -0.65560000      -1.82900000
H        1.94600000      -2.60430000      -0.13130000
H        3.09240000      -0.10030000       0.35970000
H        0.92520000      -2.41160000       2.02130000
H       -1.47720000      -2.23370000       0.91060000
H       -2.18680000      -0.57870000       0.89420000
