23
Properties=species:S:1:pos:R:3 gdb_92213=T pbc="F F F"
C       -0.39740000       1.54060000       0.00300000
C       -0.01310000       0.05800000      -0.03330000
C        0.75650000      -0.41070000      -1.31450000
C        2.13690000      -0.83170000      -0.77470000
C        2.82480000       0.43610000      -0.17930000
C        2.33550000       0.27680000       1.27450000
C        2.87360000      -1.14860000       1.59010000
C        1.80250000      -1.57040000       0.55940000
C        0.92350000      -0.40340000       1.09430000
H        0.47990000       2.19230000      -0.05520000
H       -1.05720000       1.79710000      -0.83290000
H       -0.92830000       1.78500000       0.93000000
H       -0.94120000      -0.52090000       0.05130000
H        0.24330000      -1.25830000      -1.78260000
H        0.83510000       0.37670000      -2.07180000
H        2.74750000      -1.38670000      -1.48970000
H        3.91740000       0.39800000      -0.23560000
H        2.50060000       1.35720000      -0.67060000
H        2.49140000       1.11260000       1.95810000
H        3.92810000      -1.35340000       1.37830000
H        2.62560000      -1.48570000       2.59980000
H        1.42850000      -2.59270000       0.47850000
H        0.43600000      -0.59170000       2.05350000
