20
Properties=species:S:1:pos:R:3 gdb_105419=T pbc="F F F"
O       -0.14420000       1.29850000      -0.74770000
C       -0.13290000      -0.02900000      -0.25210000
C       -1.53800000      -0.52230000       0.11820000
C       -2.45750000      -0.67330000      -1.12150000
C       -2.12750000      -2.19240000      -1.14200000
C       -1.58730000      -2.06690000       0.30940000
N       -2.09670000       0.31200000       1.18160000
C       -1.67240000       0.27010000       2.47360000
O       -0.72670000      -0.37550000       2.87560000
H       -0.44000000       1.86290000      -0.02540000
H        0.26860000      -0.65170000      -1.05790000
H        0.52120000      -0.13690000       0.62240000
H       -3.50880000      -0.49390000      -0.87340000
H       -2.19010000      -0.06630000      -1.98860000
H       -2.96550000      -2.87340000      -1.30040000
H       -1.34540000      -2.43940000      -1.86360000
H       -0.64230000      -2.55660000       0.55290000
H       -2.33000000      -2.35190000       1.05750000
H       -2.95380000       0.80700000       0.98820000
H       -2.29230000       0.91010000       3.13460000
