27
Properties=species:S:1:pos:R:3 gdb_117979=T pbc="F F F"
C        0.01530000       1.58520000       0.16590000
C       -0.03900000       0.05930000       0.04700000
C        0.62690000      -0.45810000      -1.23610000
C        0.69270000      -1.99400000      -1.34230000
C       -0.71090000      -2.62290000      -1.38010000
C        1.58150000      -2.49900000      -2.51600000
C        1.00620000      -2.16230000      -3.90030000
C        3.02460000      -1.98090000      -2.40280000
O        1.60350000      -3.92610000      -2.34390000
H        1.04970000       1.94710000       0.17210000
H       -0.49620000       2.06650000      -0.67530000
H       -0.46370000       1.93150000       1.08720000
H        0.45540000      -0.39390000       0.91680000
H       -1.08450000      -0.26630000       0.08710000
H        0.08860000      -0.05020000      -2.10320000
H        1.63860000      -0.03860000      -1.28010000
H        1.19480000      -2.36890000      -0.43930000
H       -0.64390000      -3.69560000      -1.56720000
H       -1.22980000      -2.47700000      -0.42900000
H       -1.33250000      -2.17290000      -2.16280000
H        0.93010000      -1.08220000      -4.05760000
H        1.65910000      -2.56010000      -4.68680000
H        0.01610000      -2.60430000      -4.03220000
H        3.42850000      -2.17880000      -1.40550000
H        3.66110000      -2.49620000      -3.13190000
H        3.10310000      -0.90990000      -2.60730000
H        2.12170000      -4.29860000      -3.06480000
