12
Properties=species:S:1:pos:R:3 gdb_213=T pbc="F F F"
C       -0.01420000       1.45760000       0.00180000
N        0.00210000       0.00940000      -0.01680000
C        0.07530000      -0.80180000      -1.12880000
C        0.06380000      -2.08580000      -0.65040000
N       -0.01510000      -2.09020000       0.72240000
C       -0.05000000      -0.82250000       1.06370000
H        0.90220000       1.86600000      -0.43560000
H       -0.87330000       1.84670000      -0.55340000
H       -0.08670000       1.79770000       1.03650000
H        0.12720000      -0.39160000      -2.12410000
H        0.10730000      -3.00460000      -1.21540000
H       -0.11250000      -0.43590000       2.07090000
