19
Properties=species:S:1:pos:R:3 gdb_85190=T pbc="F F F"
C       -0.24490000       1.54280000      -0.08320000
C        0.02210000       0.04060000      -0.04240000
C        1.23490000      -0.39760000      -0.92630000
C        2.05810000      -0.49670000       0.36800000
O        3.22720000      -0.44620000       0.61550000
C        0.78590000      -0.47810000       1.23240000
C        0.77880000       0.31010000       2.54990000
C        1.46030000      -0.39320000       3.62960000
C        2.00490000      -0.99400000       4.51610000
H        0.67210000       2.12110000       0.07880000
H       -0.64640000       1.83320000      -1.05930000
H       -0.97050000       1.84630000       0.67830000
H       -0.90060000      -0.50820000      -0.24360000
H        1.10020000      -1.37830000      -1.39350000
H        1.59920000       0.30550000      -1.68000000
H        0.49150000      -1.51560000       1.43090000
H        1.24470000       1.29110000       2.40020000
H       -0.26120000       0.50390000       2.84400000
H        2.50200000      -1.51430000       5.29670000
