21
Properties=species:S:1:pos:R:3 gdb_82240=T pbc="F F F"
C        0.01190000       1.60180000      -0.09350000
C        0.04100000       0.07220000      -0.02000000
C        0.72730000      -0.59820000      -1.20160000
O        2.15590000      -0.46440000      -1.19680000
C        1.58170000      -1.70330000      -0.74120000
C        1.51440000      -1.82300000       0.76820000
C        2.77210000      -1.34720000       1.55090000
C        2.11860000       0.05410000       1.72090000
C        0.75910000      -0.52720000       1.21670000
H        1.02190000       2.01200000      -0.17520000
H       -0.55760000       1.94200000      -0.96480000
H       -0.45760000       2.02960000       0.79810000
H       -0.99700000      -0.29180000      -0.01740000
H        0.26750000      -0.57710000      -2.18840000
H        1.81360000      -2.56590000      -1.36230000
H        1.09180000      -2.79050000       1.05440000
H        2.89280000      -1.87810000       2.49850000
H        3.71940000      -1.38090000       1.00860000
H        2.11100000       0.46150000       2.73500000
H        2.54670000       0.79480000       1.04600000
H        0.05930000      -0.68080000       2.04130000
