16
Properties=species:S:1:pos:R:3 gdb_49230=T pbc="F F F"
O       -0.12090000       0.10540000       0.41570000
C        0.03000000       1.25960000       0.12130000
C        1.37030000       1.91130000      -0.03960000
N        2.50350000       1.35580000       0.10660000
C        3.50090000       2.40240000      -0.15550000
C        2.67330000       3.65280000      -0.48260000
C        2.98350000       5.05060000      -0.06000000
C        2.98740000       4.66700000      -1.53240000
O        1.30590000       3.22750000      -0.37580000
H       -0.81800000       1.95150000      -0.05900000
H        4.13790000       2.53290000       0.72730000
H        4.15050000       2.09390000      -0.98290000
H        2.15900000       5.65950000       0.29340000
H        3.93140000       5.23100000       0.43690000
H        3.93820000       4.58310000      -2.04930000
H        2.16550000       5.02490000      -2.14210000
