17
Properties=species:S:1:pos:R:3 gdb_115131=T pbc="F F F"
C        0.14130000       1.04520000      -0.35630000
O       -0.01470000      -0.26980000       0.15500000
C        0.60080000      -0.47700000       1.42360000
C        0.17810000      -1.86610000       1.91280000
C        1.04490000      -2.86220000       1.10890000
C        2.36360000      -2.13710000       0.88870000
O        3.43340000      -2.59720000       0.59660000
C        2.10400000      -0.62110000       1.15190000
O        2.93340000       0.24630000       1.08800000
H        1.19560000       1.31170000      -0.49980000
H       -0.37150000       1.06690000      -1.32010000
H       -0.31730000       1.78500000       0.31570000
H        0.36780000       0.33970000       2.11810000
H        0.39500000      -1.94960000       2.98320000
H       -0.89370000      -2.01780000       1.77050000
H        1.19720000      -3.82910000       1.59250000
H        0.59900000      -3.04830000       0.12460000
