15
Properties=species:S:1:pos:R:3 gdb_4538=T pbc="F F F"
C       -0.09190000       1.44500000      -0.02150000
N       -0.11310000       0.00170000       0.00660000
C       -0.03810000      -0.80870000      -1.10560000
C        0.12730000      -2.10290000      -0.66470000
O        0.22270000      -3.28740000      -1.34950000
C        0.16830000      -2.07680000       0.75370000
O        0.29640000      -3.16130000       1.57140000
C        0.02810000      -0.76510000       1.14350000
H        0.92870000       1.84850000      -0.05270000
H       -0.63380000       1.80290000      -0.90120000
H       -0.59190000       1.83570000       0.86880000
H       -0.10890000      -0.40070000      -2.10110000
H        0.07310000      -3.12910000      -2.28550000
H        0.33660000      -3.93950000       1.00440000
H        0.01090000      -0.32470000       2.12620000
