11
Properties=species:S:1:pos:R:3 gdb_383=T pbc="F F F"
O        0.14060000       1.38690000       0.00250000
C        0.11070000      -0.01610000       0.03120000
C       -1.35010000      -0.50590000       0.02320000
O       -2.04310000       0.02940000      -1.09760000
C       -1.42570000      -1.97450000       0.06550000
N       -1.45020000      -3.12980000       0.06590000
H       -0.46190000       1.65910000      -0.70150000
H        0.63960000      -0.46700000      -0.82570000
H        0.61340000      -0.34540000       0.94550000
H       -1.85850000      -0.09610000       0.90200000
H       -1.75870000      -0.44690000      -1.88740000
