19
Properties=species:S:1:pos:R:3 gdb_117393=T pbc="F F F"
O       -0.28050000       1.42460000      -0.00130000
C       -0.05110000       0.03100000       0.14070000
C       -1.37410000      -0.66650000      -0.14240000
C       -1.26850000      -2.16870000      -0.02060000
O       -0.27190000      -2.77700000       0.27980000
O       -2.45390000      -2.75310000      -0.30940000
C       -2.49680000      -4.16700000      -0.22150000
C       -3.26980000      -4.76980000       0.91220000
C       -3.82950000      -4.77840000      -0.49860000
H        0.54600000       1.88210000       0.17740000
H        0.71410000      -0.33060000      -0.56080000
H        0.29250000      -0.22580000       1.15270000
H       -2.14660000      -0.30760000       0.54710000
H       -1.73040000      -0.41350000      -1.14700000
H       -1.58530000      -4.64240000      -0.56000000
H       -2.90730000      -5.69550000       1.34420000
H       -3.72330000      -4.08240000       1.61700000
H       -4.64540000      -4.09690000      -0.71020000
H       -3.86130000      -5.71160000      -1.04930000
