21
Properties=species:S:1:pos:R:3 gdb_38706=T pbc="F F F"
C       -0.02440000       1.49160000       0.05130000
C        1.33020000       0.80910000      -0.02330000
C        2.19310000       0.26590000       1.12410000
C        1.54410000      -1.13930000       1.34380000
C        0.05950000      -0.74560000       1.31680000
C        0.04750000      -0.00470000      -0.02940000
C       -0.08840000      -0.97290000      -1.18310000
C        0.99580000      -2.02170000      -0.95770000
C        1.75390000      -2.06490000       0.14640000
H       -0.37410000       1.92010000       0.98710000
H       -0.30940000       2.06860000      -0.82450000
H        1.83390000       0.92690000      -0.97740000
H        3.24620000       0.21430000       0.83480000
H        2.13410000       0.85730000       2.04620000
H        1.87700000      -1.62600000       2.26720000
H       -0.61610000      -1.60510000       1.32920000
H       -0.20230000      -0.08880000       2.15290000
H       -1.08120000      -1.44250000      -1.25200000
H        0.08010000      -0.47090000      -2.14550000
H        1.16910000      -2.73710000      -1.75860000
H        2.54660000      -2.80550000       0.21890000
