15
Properties=species:S:1:pos:R:3 gdb_27699=T pbc="F F F"
C       -0.01580000       1.45840000       0.03030000
C        0.00760000      -0.03170000      -0.02060000
N        0.03930000      -0.75610000      -1.12990000
C        0.07370000      -2.06150000      -0.73300000
N        0.17050000      -3.07840000      -1.65090000
C        0.05650000      -2.14690000       0.65560000
N        0.01590000      -0.81340000       1.08150000
C        0.06000000      -3.25120000       1.51500000
N        0.05840000      -4.18220000       2.21130000
H        0.95030000       1.86300000       0.35350000
H       -0.22920000       1.84200000      -0.96780000
H       -0.78000000       1.82730000       0.72190000
H       -0.14540000      -2.82270000      -2.57450000
H       -0.15100000      -3.98480000      -1.34670000
H       -0.00710000      -0.51080000       2.04100000
