13
Properties=species:S:1:pos:R:3 gdb_27597=T pbc="F F F"
N       -0.04920000       1.35180000       0.09790000
C        0.02080000      -0.00200000       0.03540000
N       -1.14560000      -0.66450000       0.02870000
C       -1.06720000      -1.99420000       0.00030000
N        0.02290000      -2.75800000      -0.02740000
C        1.17880000      -2.07530000      -0.02380000
C        1.24670000      -0.69840000       0.00740000
C       -2.33620000      -2.69500000      -0.00500000
N       -3.34920000      -3.25080000      -0.00980000
H        0.76280000       1.91330000      -0.08810000
H       -0.95550000       1.77300000      -0.02500000
H        2.08650000      -2.67270000      -0.04750000
H        2.19670000      -0.17720000       0.01260000
