17
Properties=species:S:1:pos:R:3 gdb_34965=T pbc="F F F"
N       -0.02420000      -1.19460000      -0.07090000
C       -0.02660000      -0.03820000      -0.04240000
C        0.00570000       1.41390000       0.03430000
C       -0.29830000       2.10400000       1.40440000
C        0.53650000       1.52900000       2.56300000
N        1.76990000       2.27410000       2.12990000
C        2.41360000       1.57160000       0.96530000
C        1.38810000       2.14240000      -0.03100000
C        0.91090000       3.05590000       1.14160000
H       -0.65590000       1.82850000      -0.73190000
H       -1.33040000       2.40450000       1.58190000
H        0.20520000       1.90820000       3.53450000
H        0.64640000       0.44160000       2.62820000
H        3.41520000       1.98120000       0.80220000
H        2.48910000       0.48350000       1.05980000
H        1.71990000       2.47380000      -1.01440000
H        0.90580000       4.14420000       1.16470000
