14
Properties=species:S:1:pos:R:3 gdb_4885=T pbc="F F F"
C       -0.13580000       1.43870000       0.11310000
N       -0.11280000       0.06290000      -0.39330000
C       -1.18710000      -0.74750000      -0.11590000
C       -1.34050000      -2.01050000       0.29040000
O       -2.70500000      -2.32360000       0.24490000
C       -3.35790000      -1.19110000      -0.14170000
N       -4.59210000      -0.99650000      -0.27800000
O       -2.43150000      -0.21170000      -0.38430000
H        0.72160000       1.97430000      -0.29940000
H       -1.04670000       1.92910000      -0.23290000
H       -0.10150000       1.49850000       1.21050000
H        0.76380000      -0.41110000      -0.22610000
H       -0.66350000      -2.78460000       0.59860000
H       -5.10980000      -1.84030000      -0.04670000
