21
Properties=species:S:1:pos:R:3 gdb_88693=T pbc="F F F"
C       -0.17690000       1.54900000      -0.05060000
C        0.00430000       0.04770000       0.01050000
C        1.34420000      -0.58980000      -0.26910000
C        0.76310000      -0.64270000       1.12560000
C        1.39750000       0.11300000       2.24830000
C        0.75990000       0.16360000       3.60780000
C        2.04760000      -0.62770000       3.41930000
C        2.03190000      -2.05860000       3.49420000
C        2.02870000      -3.26030000       3.56230000
H        0.72190000       2.08330000       0.27140000
H       -0.39710000       1.87170000      -1.07420000
H       -1.00420000       1.87900000       0.58770000
H       -0.85750000      -0.50720000      -0.35290000
H        1.38900000      -1.50340000      -0.85170000
H        2.18590000       0.07800000      -0.43010000
H        0.36560000      -1.60610000       1.43090000
H        1.93990000       1.00580000       1.95200000
H        0.81440000       1.07990000       4.18510000
H       -0.14490000      -0.41470000       3.75870000
H        2.94720000      -0.16800000       3.81840000
H        2.02690000      -4.31990000       3.62500000
