15
Properties=species:S:1:pos:R:3 gdb_13956=T pbc="F F F"
N       -0.06160000      -1.10810000      -0.45430000
C       -0.06040000       0.02570000      -0.23380000
C       -0.04870000       1.46020000       0.06540000
C        1.34690000       2.00850000       0.19510000
C        2.41550000       1.69030000       1.25560000
C        2.98350000       3.13900000       1.04100000
C        1.88310000       3.36620000      -0.00440000
O        2.04120000       2.34900000      -1.00700000
H       -0.57320000       1.99610000      -0.73220000
H       -0.60530000       1.62210000       0.99610000
H        2.00350000       1.54700000       2.25730000
H        3.07160000       0.85470000       1.00580000
H        2.87570000       3.76800000       1.92730000
H        4.00220000       3.21660000       0.65610000
H        1.39790000       4.28600000      -0.31140000
