18
Properties=species:S:1:pos:R:3 gdb_33463=T pbc="F F F"
N        0.46420000      -1.16180000      -0.28850000
C        0.25450000      -0.03190000      -0.15100000
C       -0.04160000       1.36890000      -0.00320000
C        0.17390000       2.00280000       1.36120000
C        1.11780000       2.32250000       0.24140000
C       -1.19810000       1.84060000      -0.87540000
C       -2.63590000       1.45880000      -0.45390000
C       -2.86710000       2.98110000      -0.40200000
O       -1.47140000       3.24380000      -0.69290000
H       -0.53930000       2.76860000       1.64140000
H        0.51510000       1.36030000       2.16370000
H        2.11600000       1.90280000       0.26250000
H        1.02490000       3.29600000      -0.22510000
H       -0.96730000       1.61740000      -1.92540000
H       -3.21700000       0.90560000      -1.19140000
H       -2.69650000       0.95310000       0.51080000
H       -3.51880000       3.38300000      -1.18620000
H       -3.16670000       3.40250000       0.56360000
