17
Properties=species:S:1:pos:R:3 gdb_96542=T pbc="F F F"
O        0.50600000       0.39630000       0.96710000
C       -0.15090000      -0.32570000      -0.03830000
C       -1.64980000       0.09470000      -0.13060000
O       -2.04630000       0.51460000      -1.42500000
C       -2.24330000      -0.53630000      -2.34480000
C       -1.04690000      -1.48840000      -2.40750000
O        0.18140000      -0.75540000      -2.46780000
C        0.58730000      -0.09380000      -1.37090000
O        1.54920000       0.62850000      -1.41910000
H        1.22140000       0.87370000       0.51470000
H       -0.08260000      -1.40100000       0.19390000
H       -2.30450000      -0.71070000       0.23420000
H       -1.76440000       0.96160000       0.52230000
H       -3.14480000      -1.12360000      -2.10190000
H       -2.39520000      -0.05370000      -3.31400000
H       -1.03500000      -2.17910000      -1.55730000
H       -1.08100000      -2.08660000      -3.32050000
