17
Properties=species:S:1:pos:R:3 gdb_64066=T pbc="F F F"
C        0.09320000       1.47290000       0.06600000
C       -0.07130000      -0.06220000      -0.02150000
C       -1.54670000      -0.46230000      -0.05940000
C        0.76370000      -0.63230000      -1.18680000
O        2.07680000      -0.95060000      -0.66570000
C        2.06320000      -1.07410000       0.68190000
O        2.99830000      -1.42580000       1.33480000
C        0.65830000      -0.65800000       1.17510000
O        0.26530000      -0.78240000       2.30070000
H        1.14770000       1.76690000       0.07700000
H       -0.38200000       1.94690000      -0.79870000
H       -0.37730000       1.85410000       0.97620000
H       -2.05280000      -0.00520000      -0.91570000
H       -1.66540000      -1.54770000      -0.13120000
H       -2.04590000      -0.13090000       0.85490000
H        0.32700000      -1.55280000      -1.58830000
H        0.90630000       0.07640000      -2.00510000
