13
Properties=species:S:1:pos:R:3 gdb_45850=T pbc="F F F"
O        0.02440000      -0.08010000      -0.08990000
C       -0.05810000       1.11200000       0.05950000
C       -1.37030000       1.87850000       0.03650000
N       -1.54770000       2.76190000       1.17760000
C       -0.74730000       3.71000000       1.35040000
O        0.33530000       4.07870000       0.56730000
C        1.34630000       3.24100000       0.18060000
O        2.39890000       3.69570000      -0.15790000
N        1.10550000       1.87260000       0.24160000
H       -1.41160000       2.45050000      -0.90250000
H       -2.16780000       1.13650000       0.02070000
H       -0.87680000       4.42700000       2.15670000
H        1.95040000       1.33250000       0.09560000
