21
Properties=species:S:1:pos:R:3 gdb_108678=T pbc="F F F"
O        0.66470000       0.31770000      -0.85680000
C        0.10040000      -0.30110000       0.29210000
C       -1.34960000      -0.66220000       0.09120000
C       -2.37870000       0.19350000       0.16640000
C       -2.25870000       1.65770000       0.47570000
O       -1.45850000       2.28480000      -0.54430000
C       -3.68580000      -0.45450000      -0.23700000
C       -3.34130000      -1.96410000      -0.26300000
C       -1.79950000      -2.02420000      -0.38900000
H        0.10820000       1.09270000      -1.02410000
H        0.69650000      -1.20030000       0.47970000
H        0.20340000       0.34480000       1.18050000
H       -3.25310000       2.12330000       0.50960000
H       -1.78990000       1.80690000       1.46040000
H       -1.30580000       3.19990000      -0.28540000
H       -4.50860000      -0.22280000       0.45050000
H       -4.00280000      -0.08800000      -1.22480000
H       -3.64650000      -2.42220000       0.68330000
H       -3.85630000      -2.50250000      -1.06230000
H       -1.47340000      -2.17660000      -1.42780000
H       -1.35930000      -2.84410000       0.19080000
