18
Properties=species:S:1:pos:R:3 gdb_37222=T pbc="F F F"
C       -0.04130000       1.30710000       0.11830000
C        1.26740000       2.12840000       0.15860000
C        2.25580000       1.42620000       1.06980000
C        2.21810000       0.10480000       1.00020000
C        2.45320000      -1.14240000       1.80270000
N        1.09660000      -1.41720000       2.38740000
C        1.39740000      -1.86230000       1.01270000
C        1.31790000      -0.65250000       0.04960000
O        0.12730000      -0.02890000      -0.36170000
H       -0.47280000       1.29090000       1.12860000
H       -0.76600000       1.76710000      -0.56070000
H        1.65780000       2.25470000      -0.86020000
H        1.03880000       3.13140000       0.53440000
H        2.84140000       1.98320000       1.79420000
H        3.35050000      -1.52300000       2.27140000
H        1.19690000      -2.23910000       2.98610000
H        1.33720000      -2.90800000       0.73780000
H        1.88290000      -0.94040000      -0.85120000
