19
Properties=species:S:1:pos:R:3 gdb_56581=T pbc="F F F"
C       -0.45130000       1.34880000      -0.30430000
C        0.10360000      -0.02400000       0.12280000
C        0.73770000      -0.68900000      -1.02000000
N        1.23060000      -1.22010000      -1.92020000
C        1.11250000       0.05340000       1.31030000
O        2.19020000       0.92820000       1.01930000
C        0.42710000       0.40140000       2.61340000
C        0.03710000      -0.67480000       3.56070000
N        1.15630000       0.22510000       3.87550000
H        0.36360000       2.01010000      -0.60820000
H       -1.13090000       1.23980000      -1.15210000
H       -1.00490000       1.81630000       0.51410000
H       -0.72760000      -0.66410000       0.44510000
H        1.57080000      -0.93710000       1.41720000
H        1.92910000       1.82610000       1.24960000
H       -0.17510000       1.30930000       2.59310000
H       -0.84090000      -0.55430000       4.18820000
H        0.25370000      -1.70240000       3.27820000
H        2.04520000      -0.23690000       3.69460000
