21
Properties=species:S:1:pos:R:3 gdb_57894=T pbc="F F F"
C        0.31760000       1.23000000       0.36950000
C       -0.14750000      -0.18750000      -0.03680000
C       -1.67170000      -0.31240000      -0.04030000
C        0.43820000      -0.49200000      -1.40970000
O       -0.19540000      -0.39610000      -2.43760000
C        1.90440000      -0.85270000      -1.50250000
O        2.66490000      -1.01610000      -0.30280000
C        2.44120000      -2.17430000      -1.10870000
C        1.62490000      -3.30560000      -0.53930000
H        1.40820000       1.30000000       0.39940000
H       -0.06250000       1.97820000      -0.33380000
H       -0.06410000       1.47440000       1.36520000
H        0.29580000      -0.88250000       0.68370000
H       -2.11060000       0.35690000      -0.78470000
H       -1.98950000      -1.32980000      -0.28780000
H       -2.07750000      -0.05660000       0.94300000
H        2.41400000      -0.33270000      -2.31420000
H        3.33230000      -2.49450000      -1.65230000
H        0.71460000      -2.95700000      -0.04880000
H        1.34250000      -3.99760000      -1.33940000
H        2.21700000      -3.86370000       0.19330000
