16
Properties=species:S:1:pos:R:3 gdb_17874=T pbc="F F F"
O       -0.02220000       0.03360000       0.00410000
C       -0.03160000       1.22850000       0.00100000
C       -1.11790000       2.31730000       0.09590000
C       -0.03480000       3.14960000       0.85810000
C        1.03390000       2.35510000       0.04730000
O        1.19790000       2.85430000      -1.27990000
C        0.04430000       3.52150000      -1.79500000
C       -1.28590000       2.88810000      -1.33580000
H       -2.06870000       2.07520000       0.57280000
H       -0.04880000       4.23450000       0.74530000
H        0.01110000       2.89210000       1.91860000
H        2.02760000       2.17170000       0.45750000
H        0.07050000       4.57760000      -1.49380000
H        0.14340000       3.49430000      -2.88330000
H       -1.59670000       2.08450000      -2.01140000
H       -2.07290000       3.65050000      -1.35430000
