19
Properties=species:S:1:pos:R:3 gdb_47099=T pbc="F F F"
O       -0.20370000       0.17920000       0.59420000
C       -0.09680000       1.32770000       0.25370000
C       -1.24880000       2.32140000       0.07620000
O       -0.68160000       3.54260000      -0.34970000
C        0.71670000       3.55320000      -0.04470000
C        1.08560000       4.08340000       1.35380000
C        2.43330000       3.40310000       1.64070000
C        2.26960000       1.96420000       1.08740000
C        1.20060000       2.08910000      -0.02740000
H       -1.96840000       1.96720000      -0.67040000
H       -1.78270000       2.41540000       1.03490000
H        1.19330000       4.15620000      -0.82260000
H        1.12060000       5.17440000       1.39990000
H        0.33000000       3.74730000       2.07540000
H        3.23160000       3.92240000       1.09720000
H        2.70450000       3.41940000       2.69950000
H        3.21050000       1.55870000       0.70980000
H        1.91900000       1.27540000       1.86240000
H        1.56850000       1.75840000      -1.00390000
