22
Properties=species:S:1:pos:R:3 gdb_62861=T pbc="F F F"
C       -0.06070000       1.52340000       0.07740000
C       -0.03700000      -0.01980000      -0.00550000
C       -1.50280000      -0.44970000       0.24460000
C        0.75670000      -0.60370000      -1.22330000
C        2.06560000      -0.14510000      -0.48200000
C        1.22390000      -0.61910000       0.75060000
N        1.35930000      -2.08930000       0.50570000
C        0.15660000      -2.84520000       0.12950000
C        0.90970000      -2.10770000      -0.92470000
H        0.90940000       2.01580000       0.03660000
H       -0.67640000       1.93230000      -0.73200000
H       -0.53200000       1.82210000       1.02060000
H       -2.17000000       0.40820000       0.11800000
H       -1.84600000      -1.21670000      -0.45200000
H       -1.65900000      -0.81770000       1.26440000
H        0.52960000      -0.31790000      -2.25180000
H        2.96140000      -0.73930000      -0.66860000
H        2.29850000       0.91330000      -0.54520000
H        1.45850000      -0.34330000       1.77980000
H        0.33140000      -3.91880000       0.17020000
H       -0.82010000      -2.56090000       0.47870000
H        1.52010000      -2.67890000      -1.62130000
