14
Properties=species:S:1:pos:R:3 gdb_21731=T pbc="F F F"
N       -0.50600000       1.24050000       0.26830000
C        0.24890000       0.02530000      -0.08580000
C        0.91180000      -0.52490000       1.13600000
N        2.15040000      -0.92400000       1.18010000
O        2.36700000      -1.36680000       2.44790000
N        1.23340000      -1.22150000       3.23370000
C        0.33050000      -0.71130000       2.43580000
N       -0.97470000      -0.44820000       2.77370000
H        0.13860000       2.00270000       0.45720000
H       -1.07850000       1.53120000      -0.51760000
H       -0.47600000      -0.70860000      -0.45920000
H        1.00500000       0.16340000      -0.87050000
H       -1.15110000      -0.40230000       3.76690000
H       -1.35500000       0.32720000       2.24210000
