17
Properties=species:S:1:pos:R:3 gdb_16110=T pbc="F F F"
C       -0.01570000      -1.19460000       0.30240000
C        0.01820000      -0.00440000       0.13450000
C        0.03580000       1.40910000      -0.11860000
C       -0.82850000       1.95750000      -1.25620000
C       -0.27950000       3.37670000      -1.53010000
C        1.20880000       3.32600000      -1.10810000
C        1.26570000       2.26560000      -0.02260000
N        0.26510000       2.29640000       1.04630000
H       -0.03780000      -2.24310000       0.46790000
H       -0.69880000       1.30990000      -2.13010000
H       -1.89490000       1.95370000      -1.00830000
H       -0.40510000       3.67240000      -2.57420000
H       -0.82090000       4.11940000      -0.93550000
H        1.84250000       3.00920000      -1.94490000
H        1.58330000       4.29900000      -0.77160000
H        2.22450000       1.84640000       0.26660000
H       -0.32390000       3.12440000       0.98560000
