20
Properties=species:S:1:pos:R:3 gdb_81944=T pbc="F F F"
C       -0.19930000       1.55740000       0.03840000
C        0.04280000       0.04910000      -0.04960000
C        0.87040000      -0.45660000      -1.22230000
C        2.33570000      -0.07850000      -1.32240000
C        1.92460000      -1.37190000      -0.65800000
N        1.78040000      -1.33410000       0.76870000
C        2.77560000      -1.87040000       1.67000000
C        0.79200000      -0.47740000       1.19110000
O        0.56760000      -0.17190000       2.34480000
H        0.74090000       2.11390000      -0.02630000
H       -0.85050000       1.89820000      -0.77170000
H       -0.66870000       1.79760000       0.99580000
H       -0.93160000      -0.45740000      -0.06110000
H        0.35960000      -0.72370000      -2.13930000
H        2.78530000      -0.13150000      -2.30830000
H        2.72760000       0.70910000      -0.68620000
H        2.17070000      -2.33560000      -1.09130000
H        3.76200000      -1.42570000       1.48590000
H        2.45880000      -1.63290000       2.68700000
H        2.86060000      -2.95760000       1.56050000
