16
Properties=species:S:1:pos:R:3 gdb_13122=T pbc="F F F"
C       -0.62790000       0.84950000      -0.09050000
O        0.09600000       0.42730000      -1.22640000
C        1.27170000      -0.29610000      -0.93210000
C        0.99320000      -1.76220000      -0.59440000
C        0.56910000      -2.68580000      -1.74900000
O        1.80380000      -3.46280000      -1.59240000
C        2.22750000      -2.67170000      -0.55530000
O        3.23810000      -2.75710000       0.06430000
H       -1.03120000       0.00860000       0.49300000
H       -0.00680000       1.46600000       0.57660000
H       -1.46530000       1.45100000      -0.45150000
H        1.89550000      -0.23990000      -1.83100000
H        1.83150000       0.16900000      -0.10680000
H        0.38190000      -1.85310000       0.30680000
H       -0.30570000      -3.31570000      -1.57980000
H        0.52530000      -2.22110000      -2.73610000
