15
Properties=species:S:1:pos:R:3 gdb_66887=T pbc="F F F"
C        0.02930000       1.52610000       0.08670000
C        0.05440000       0.03060000      -0.01660000
C       -0.96230000      -0.88810000       0.75520000
N       -1.52060000      -2.05510000       0.08280000
C       -0.51210000      -2.65080000      -0.41290000
N        0.77570000      -2.01830000      -0.18430000
C        0.48350000      -1.08440000       0.95880000
C        0.70610000      -0.78550000      -1.06490000
O        1.16990000      -0.61610000      -2.14600000
H        1.02020000       1.94890000      -0.10510000
H       -0.66510000       1.95080000      -0.64480000
H       -0.29380000       1.84800000       1.08100000
H       -1.59650000      -0.36590000       1.46070000
H       -0.56100000      -3.53260000      -1.04050000
H        1.12040000      -1.03910000       1.83230000
