21
Properties=species:S:1:pos:R:3 gdb_59737=T pbc="F F F"
C        0.00300000       1.55990000      -0.00910000
C        0.06860000       0.02860000       0.10320000
C        0.73240000      -0.38530000       1.42480000
C       -1.32910000      -0.59960000      -0.05060000
C       -2.15850000      -0.15380000      -1.26660000
O       -3.11300000      -1.19180000      -1.48810000
C       -2.46150000      -2.42110000      -1.24820000
C       -1.34710000      -2.12370000      -0.24050000
O       -0.62430000      -2.94560000       0.26080000
H        1.00110000       1.99420000       0.10730000
H       -0.39030000       1.89090000      -0.97530000
H       -0.63470000       1.98280000       0.77640000
H        0.68930000      -0.34580000      -0.72330000
H        0.79900000      -1.47050000       1.51140000
H        1.74060000       0.03600000       1.49410000
H        0.15740000      -0.00720000       2.27920000
H       -1.91860000      -0.39770000       0.85720000
H       -2.71360000       0.77300000      -1.11350000
H       -1.50930000      -0.02910000      -2.15010000
H       -3.17680000      -3.15210000      -0.85990000
H       -2.00620000      -2.83910000      -2.16240000
