18
Properties=species:S:1:pos:R:3 gdb_29790=T pbc="F F F"
C        0.01640000       1.46100000       0.02940000
N       -0.03590000       0.01710000       0.02510000
C        0.01640000      -0.75940000      -1.12230000
C        0.07560000      -2.07390000      -0.73040000
O        0.11490000      -3.17480000      -1.53210000
C        0.07240000      -2.08980000       0.68900000
O        0.04620000      -3.25660000       1.43240000
C       -0.00210000      -0.78710000       1.14180000
C       -0.04720000      -0.27760000       2.54180000
H        1.03150000       1.84030000       0.20560000
H       -0.32670000       1.83290000      -0.93850000
H       -0.64170000       1.86750000       0.80240000
H        0.00110000      -0.31240000      -2.10170000
H        0.03950000      -3.93610000      -0.94380000
H        0.93010000      -3.42970000       1.77380000
H        0.83320000       0.32080000       2.81070000
H       -0.93160000       0.34250000       2.73440000
H       -0.09210000      -1.13080000       3.22350000
