19
Properties=species:S:1:pos:R:3 gdb_81999=T pbc="F F F"
C       -0.12390000       1.55470000      -0.12570000
C        0.01470000       0.04440000      -0.01530000
C        1.05450000      -0.64270000      -0.91040000
O        2.35270000      -0.17640000      -0.50710000
C        1.75210000      -1.23920000       0.23220000
C        0.77320000      -0.59530000       1.25340000
C        1.41990000       0.36120000       2.25980000
C       -0.05030000      -1.59560000       1.91250000
C       -0.72130000      -2.43390000       2.45530000
H        0.85360000       2.04290000      -0.11580000
H       -0.62460000       1.82160000      -1.06300000
H       -0.72310000       1.96100000       0.69530000
H       -0.95730000      -0.44500000      -0.11630000
H        0.95320000      -0.98860000      -1.93280000
H        2.30460000      -2.16580000       0.33650000
H        2.11050000       1.03390000       1.74760000
H        0.66150000       0.95540000       2.77750000
H        1.97590000      -0.20260000       3.01480000
H       -1.31630000      -3.16850000       2.93880000
