25
Properties=species:S:1:pos:R:3 gdb_116154=T pbc="F F F"
C       -0.06040000       1.57790000       0.00370000
C        0.01380000       0.04900000      -0.00820000
C        0.72020000      -0.51280000      -1.23930000
C        0.87040000      -2.03910000      -1.20540000
C        1.49120000      -2.57580000      -2.50630000
C        1.56720000      -4.10410000      -2.52130000
C        0.70490000      -2.02030000      -3.70510000
C        0.56710000      -0.50090000      -3.60170000
O       -0.03240000      -0.11040000      -2.38000000
H        0.94160000       2.02170000       0.02010000
H       -0.57360000       1.94290000      -0.88910000
H       -0.59940000       1.94010000       0.88440000
H        0.54050000      -0.31210000       0.88370000
H       -0.99740000      -0.37510000       0.02830000
H        1.73010000      -0.06420000      -1.30930000
H        1.48280000      -2.32960000      -0.34280000
H       -0.12340000      -2.48540000      -1.06150000
H        2.51710000      -2.18140000      -2.57190000
H        0.56620000      -4.54710000      -2.45900000
H        2.03550000      -4.46960000      -3.44170000
H        2.15070000      -4.48160000      -1.67460000
H        1.19720000      -2.28550000      -4.64890000
H       -0.29770000      -2.46760000      -3.72440000
H        1.56030000      -0.02810000      -3.70310000
H       -0.07230000      -0.10460000      -4.39650000
