18
Properties=species:S:1:pos:R:3 gdb_31162=T pbc="F F F"
C       -0.11850000       1.45820000       0.12030000
O        0.16320000       0.07450000      -0.05920000
C        0.68980000      -0.54910000       1.04990000
C        2.00380000      -0.94320000       1.12870000
O        3.03080000      -0.80860000       0.25420000
N        2.18620000      -1.59310000       2.31160000
C        0.98330000      -1.62380000       3.00070000
C        0.02860000      -0.98620000       2.24560000
C       -1.41680000      -0.79850000       2.58980000
H        0.77990000       2.01380000       0.42080000
H       -0.47670000       1.83640000      -0.84080000
H       -0.89610000       1.61690000       0.87780000
H        2.65010000      -0.43680000      -0.55110000
H        3.05170000      -2.01190000       2.60150000
H        0.91360000      -2.09390000       3.96760000
H       -1.65690000       0.24360000       2.83680000
H       -2.06470000      -1.08490000       1.75390000
H       -1.69480000      -1.40950000       3.45350000
