16
Properties=species:S:1:pos:R:3 gdb_70404=T pbc="F F F"
O       -0.04240000       1.41710000      -0.02420000
C       -0.01790000       0.04320000       0.02270000
C       -0.27140000      -0.83450000      -1.17170000
C       -1.19640000      -0.91850000       0.01970000
C       -0.53620000      -1.77900000       1.09970000
C        0.67830000      -0.76450000       1.13250000
O        1.95700000      -1.22850000       0.75930000
C        0.74450000      -0.03660000       2.40740000
N        0.83140000       0.49190000       3.43150000
H        0.72540000       1.72350000      -0.52050000
H       -0.66960000      -0.28430000      -2.01800000
H        0.39150000      -1.65730000      -1.42270000
H       -2.25130000      -0.68980000      -0.04560000
H       -1.07870000      -1.81470000       2.04510000
H       -0.24640000      -2.78960000       0.79750000
H        2.34320000      -1.70920000       1.50050000
