20
Properties=species:S:1:pos:R:3 gdb_11794=T pbc="F F F"
O       -0.06310000       1.40770000      -0.16170000
C        0.00090000      -0.00220000       0.02280000
C       -1.40480000      -0.54230000       0.01180000
C       -2.29830000      -0.51650000      -1.26670000
C       -3.07830000      -1.62370000      -0.50290000
C       -1.69330000      -2.07360000       0.04740000
C       -3.65750000      -0.83890000       0.69110000
C       -2.38620000      -0.01680000       1.08410000
H        0.83370000       1.75370000      -0.14570000
H        0.59060000      -0.47890000      -0.77730000
H        0.48490000      -0.25560000       0.98160000
H       -2.81950000       0.41340000      -1.51070000
H       -1.77380000      -0.89770000      -2.14690000
H       -3.74240000      -2.31950000      -1.01660000
H       -1.10690000      -2.62860000      -0.69000000
H       -1.65970000      -2.58250000       1.01660000
H       -4.49790000      -0.20180000       0.39980000
H       -4.00010000      -1.49760000       1.49480000
H       -2.03700000      -0.23720000       2.09820000
H       -2.52860000       1.06280000       1.00470000
