21
Properties=species:S:1:pos:R:3 gdb_101190=T pbc="F F F"
C       -0.00870000       1.69760000       0.31530000
C       -0.03430000       0.19730000      -0.00460000
C        0.75700000      -0.61190000       1.02570000
O        2.10260000      -0.15660000       1.01460000
C       -1.45340000      -0.33250000      -0.08840000
C       -2.40060000      -0.11870000      -1.25910000
C       -1.65980000      -0.31160000      -2.57840000
O       -1.11450000      -1.58460000      -2.13720000
C       -1.87540000      -1.50060000      -0.92720000
H        1.01990000       2.05760000       0.38560000
H       -0.52960000       2.27200000      -0.45700000
H       -0.50390000       1.90210000       1.27280000
H        0.45870000       0.02970000      -0.96820000
H        0.30380000      -0.48280000       2.02410000
H        0.69740000      -1.68090000       0.77020000
H        2.60050000      -0.67250000       1.65480000
H       -1.99920000      -0.29530000       0.85530000
H       -3.39000000       0.30450000      -1.14980000
H       -2.33160000      -0.46270000      -3.43070000
H       -0.87860000       0.40860000      -2.84800000
H       -2.35320000      -2.40710000      -0.57200000
