12
Properties=species:S:1:pos:R:3 gdb_21804=T pbc="F F F"
O       -0.24710000       0.05460000       0.27650000
C       -0.03170000       1.20860000       0.02530000
C        1.36190000       1.75330000      -0.28900000
C        1.33730000       2.82820000      -1.32190000
N        1.97420000       2.72940000      -2.45960000
O        1.66790000       3.93240000      -3.10930000
C        0.87510000       4.60920000      -2.28120000
N        0.62470000       4.00270000      -1.16520000
H       -0.83650000       1.97370000       0.02850000
H        1.74580000       2.17860000       0.64910000
H        2.01480000       0.93280000      -0.58890000
H        0.52710000       5.57720000      -2.61110000
