16
Properties=species:S:1:pos:R:3 gdb_37856=T pbc="F F F"
N       -0.02550000       1.48420000       0.02360000
C        1.45600000       1.41830000      -0.00540000
C        1.98830000       0.84260000       1.36850000
O        0.84430000       0.59510000       2.22520000
C        0.54960000      -0.54400000       1.37690000
C       -0.01450000       0.00110000       0.00320000
C        1.31890000       0.08410000      -0.81290000
O        2.23770000      -0.86640000      -0.34220000
C        2.06670000      -0.68060000       1.03240000
H       -0.36900000       1.84600000       0.91400000
H        1.99070000       2.28740000      -0.38980000
H        2.78600000       1.39750000       1.86130000
H       -0.03130000      -1.31770000       1.87790000
H       -0.90510000      -0.50340000      -0.37270000
H        1.28410000       0.11360000      -1.89820000
H        2.70370000      -1.33790000       1.61930000
