23
Properties=species:S:1:pos:R:3 gdb_80428=T pbc="F F F"
C       -0.13840000       1.53930000      -0.09300000
C        0.07410000       0.02690000      -0.03400000
C        0.96450000      -0.54310000      -1.16590000
C        1.19260000      -2.00490000      -0.69080000
C        1.99030000      -1.27910000       0.43490000
O        2.89400000      -1.91880000       1.28070000
C        2.40500000      -0.24760000      -0.66050000
C        0.87110000      -0.54520000       1.20520000
C        1.37640000       0.44540000       2.25320000
H        0.80400000       2.09490000      -0.10220000
H       -0.68630000       1.80770000      -1.00310000
H       -0.72410000       1.89610000       0.76010000
H       -0.91220000      -0.44970000      -0.07960000
H        0.66840000      -0.32020000      -2.19090000
H        0.32150000      -2.60240000      -0.40490000
H        1.84090000      -2.57200000      -1.36550000
H        3.57240000      -2.33720000       0.74150000
H        3.16920000      -0.64730000      -1.33370000
H        2.66920000       0.76910000      -0.36140000
H        0.26040000      -1.29400000       1.72280000
H        2.02020000       1.22020000       1.82640000
H        0.54500000       0.94680000       2.75880000
H        1.96010000      -0.08630000       3.00990000
