16
Properties=species:S:1:pos:R:3 gdb_79940=T pbc="F F F"
O       -0.09470000       1.40660000      -0.06600000
C       -0.03750000       0.01530000       0.03580000
C       -0.45650000      -0.68290000       1.30530000
N       -1.13920000       0.21800000       2.22580000
C       -2.25670000       0.42760000       1.65990000
O       -3.10200000       1.49500000       1.59070000
C       -3.27870000       1.17730000       0.14480000
C       -2.62410000      -0.23130000       0.37190000
C       -1.29540000      -0.82120000      -0.02630000
H       -0.02430000       1.76060000       0.82990000
H        0.81600000      -0.41640000      -0.48400000
H        0.14280000      -1.48110000       1.72700000
H       -4.33540000       1.19000000      -0.12290000
H       -2.68220000       1.86730000      -0.44980000
H       -3.40120000      -0.99410000       0.45900000
H       -1.26930000      -1.73590000      -0.60480000
