15
Properties=species:S:1:pos:R:3 gdb_2312=T pbc="F F F"
C        0.03070000       1.54640000      -0.19090000
C       -0.00340000       0.05670000       0.05600000
N        1.27300000      -0.67350000      -0.00730000
C        0.54550000      -0.61990000       1.26410000
C        1.22520000       0.12580000       2.40400000
C        2.11750000      -0.74780000       3.16680000
N        2.80670000      -1.45510000       3.76670000
H        0.93180000       2.00450000       0.22270000
H        0.02390000       1.75100000      -1.26640000
H       -0.84490000       2.03560000       0.24940000
H       -0.87160000      -0.43990000      -0.37700000
H        1.16670000      -1.58000000      -0.45260000
H        0.02680000      -1.51990000       1.58880000
H        1.80910000       0.96140000       2.00980000
H        0.47550000       0.53900000       3.08930000
