17
Properties=species:S:1:pos:R:3 gdb_41387=T pbc="F F F"
C       -0.02330000       1.59710000       0.16000000
N        1.41360000       1.58600000      -0.22540000
C        1.33150000       0.16290000      -0.60680000
C        2.16150000      -0.41330000      -1.78970000
O        2.97550000      -1.20820000      -0.83670000
C        2.07610000      -0.87880000       0.14670000
N        1.59200000      -1.45700000       1.15500000
C        0.28430000      -0.75830000       1.36560000
C       -0.07440000       0.05150000       0.05390000
H       -0.21140000       2.02350000       1.15090000
H       -0.67600000       2.09390000      -0.56760000
H        1.64600000       2.20660000      -0.99210000
H        1.64630000      -1.07740000      -2.48750000
H        2.78370000       0.31360000      -2.31760000
H       -0.46410000      -1.52560000       1.58170000
H        0.33180000      -0.09570000       2.23790000
H       -0.92070000      -0.37600000      -0.48310000
