21
Properties=species:S:1:pos:R:3 gdb_77700=T pbc="F F F"
C       -0.61660000       1.16120000       0.06680000
C       -0.05130000      -0.25070000       0.05800000
C        0.79960000      -0.73750000      -1.13910000
C        0.33180000      -1.24880000      -2.46480000
C        1.10750000       0.04850000      -2.38040000
C        1.84650000      -1.35740000      -0.19700000
C        1.16600000      -0.58350000       0.93740000
C        1.78180000       0.21460000       1.99820000
O        1.09550000      -1.01500000       2.28250000
H        0.16450000       1.90480000      -0.12180000
H       -1.38940000       1.28330000      -0.70050000
H       -1.07820000       1.39000000       1.03330000
H       -0.84820000      -0.97510000       0.27040000
H        0.82840000      -2.11850000      -2.88370000
H       -0.72890000      -1.19190000      -2.69090000
H        0.56860000       0.97420000      -2.55520000
H        2.13230000       0.05730000      -2.73860000
H        1.73100000      -2.43970000      -0.07590000
H        2.89810000      -1.13050000      -0.39390000
H        2.86250000       0.18840000       2.13540000
H        1.29050000       1.11600000       2.36240000
