18
Properties=species:S:1:pos:R:3 gdb_91162=T pbc="F F F"
C       -0.25450000       1.44550000      -0.02330000
N        0.07550000       0.03320000       0.00610000
C        0.83560000      -0.45140000      -1.16680000
C        1.91690000      -1.38100000      -0.54040000
C        2.88410000      -0.49690000       0.21630000
C        2.23430000       0.07410000       1.24800000
C        0.80750000      -0.43560000       1.21290000
C        1.11700000      -1.86590000       0.70150000
O        0.86850000      -2.95130000       1.12420000
H        0.62940000       2.10610000      -0.06880000
H       -0.87570000       1.65470000      -0.90040000
H       -0.83590000       1.70740000       0.86670000
H        0.18240000      -1.00100000      -1.85530000
H        1.30860000       0.37130000      -1.72200000
H        2.33190000      -2.14030000      -1.19910000
H        3.92220000      -0.36270000      -0.06000000
H        2.64280000       0.76730000       1.97200000
H        0.20350000      -0.34740000       2.11370000
