15
Properties=species:S:1:pos:R:3 gdb_47327=T pbc="F F F"
N       -0.06010000       1.28080000       0.22580000
C       -0.00030000       0.03940000      -0.04100000
O        1.18560000      -0.61470000      -0.19820000
C        1.15280000      -1.87430000      -0.88380000
C        0.11060000      -2.82000000      -0.29860000
C       -1.21160000      -2.09130000      -0.20190000
C       -1.23410000      -0.75040000      -0.11490000
C       -2.41260000      -2.85960000      -0.18940000
N       -3.36530000      -3.51870000      -0.18410000
H        0.88150000       1.67780000       0.26150000
H        0.94380000      -1.69810000      -1.94690000
H        2.16120000      -2.28120000      -0.79160000
H        0.01840000      -3.70490000      -0.93590000
H        0.41480000      -3.17210000       0.69500000
H       -2.15530000      -0.18760000      -0.03950000
