20
Properties=species:S:1:pos:R:3 gdb_80454=T pbc="F F F"
C       -0.52360000       1.26880000       0.11970000
C       -0.15660000      -0.16620000      -0.17000000
C        0.61160000      -0.61870000      -1.36860000
C        1.37220000       0.37700000      -2.25260000
C        2.67190000       0.64960000      -1.45760000
C        3.31050000       2.02450000      -1.61280000
C        2.25370000       0.33790000      -0.01010000
O        2.70090000       0.83280000       0.99060000
N        1.23570000      -0.65620000      -0.03280000
H        0.12740000       1.98730000      -0.38400000
H       -1.55240000       1.45800000      -0.20330000
H       -0.46200000       1.46770000       1.19410000
H       -0.86970000      -0.88220000       0.23610000
H        0.37170000      -1.58900000      -1.79530000
H        1.56910000      -0.05000000      -3.23790000
H        0.80970000       1.30370000      -2.41160000
H        3.40560000      -0.12370000      -1.72660000
H        2.58730000       2.82000000      -1.40310000
H        4.13730000       2.13720000      -0.90690000
H        3.69170000       2.17290000      -2.62730000
