18
Properties=species:S:1:pos:R:3 gdb_96807=T pbc="F F F"
C       -0.03800000       1.41630000       0.08880000
N       -0.04110000      -0.03330000       0.03710000
C        0.50240000      -0.60580000      -0.95610000
N        1.15850000      -0.03160000      -2.06150000
C        1.69280000      -0.95980000      -2.92810000
O        2.28930000      -0.73880000      -3.95180000
C        1.36690000      -2.31670000      -2.29900000
N        0.55360000      -1.97130000      -1.15670000
C        0.20370000      -2.92100000      -0.12820000
H        0.96140000       1.85770000      -0.05900000
H       -0.71350000       1.86460000      -0.65650000
H       -0.38770000       1.74070000       1.07230000
H        1.21260000       0.96010000      -2.22410000
H        0.84460000      -2.95490000      -3.02280000
H        2.30370000      -2.82530000      -2.02330000
H        1.09410000      -3.34340000       0.36010000
H       -0.39420000      -2.39990000       0.61990000
H       -0.38210000      -3.74520000      -0.55020000
