14
Properties=species:S:1:pos:R:3 gdb_10999=T pbc="F F F"
O       -0.06840000       1.42460000       0.05000000
C       -0.02670000       0.03460000       0.04860000
C       -0.38870000      -0.75310000      -1.19190000
C       -1.28850000      -0.77380000       0.04550000
C       -1.06430000      -1.92200000       1.01000000
O       -1.86780000      -2.76620000       1.32750000
C        0.34290000      -1.78940000       1.49710000
C        0.90130000      -0.68390000       0.98850000
H        0.64120000       1.75020000      -0.51450000
H       -0.77450000      -0.18400000      -2.03220000
H        0.18530000      -1.63710000      -1.44840000
H       -2.26720000      -0.31920000      -0.02760000
H        0.80030000      -2.51670000       2.15470000
H        1.90970000      -0.32970000       1.17440000
