16
Properties=species:S:1:pos:R:3 gdb_45007=T pbc="F F F"
N       -0.04990000       1.32710000       0.39070000
C       -0.02140000       0.11330000       0.01270000
C       -1.32200000      -0.63320000      -0.20260000
C       -1.23580000      -1.72040000      -1.24710000
N       -0.50780000      -1.37390000      -2.46570000
C        0.08570000      -2.35060000      -1.51470000
C        1.29870000      -1.86250000      -0.78910000
O        2.35120000      -2.46310000      -0.76880000
N        1.14410000      -0.64690000      -0.13990000
H        0.88990000       1.70170000       0.53770000
H       -1.60790000      -1.08700000       0.75560000
H       -2.08770000       0.10380000      -0.45310000
H       -2.11010000      -2.36130000      -1.33150000
H       -0.88060000      -1.87550000      -3.26750000
H        0.14790000      -3.39350000      -1.80390000
H        2.00910000      -0.25720000       0.21240000
