20
Properties=species:S:1:pos:R:3 gdb_80871=T pbc="F F F"
C       -0.00280000       1.52130000       0.08090000
C        0.04430000       0.01270000       0.07980000
C        0.85800000      -0.83280000      -0.98190000
C        0.67480000      -1.93450000       0.10250000
C        0.85550000      -0.78370000       1.14110000
O        2.17100000      -0.27040000       1.24100000
N       -0.79230000      -2.19430000      -0.04260000
C       -1.65830000      -1.74920000       1.06890000
C       -1.27180000      -0.78000000       0.00900000
H        1.00740000       1.93570000       0.13780000
H       -0.47840000       1.90210000      -0.82990000
H       -0.57290000       1.89960000       0.93700000
H        0.37640000      -1.02430000      -1.94320000
H        1.88520000      -0.49440000      -1.10170000
H        1.26740000      -2.84960000       0.13550000
H        0.43340000      -0.89760000       2.14340000
H        2.70290000      -0.91210000       1.72200000
H       -2.65410000      -2.18140000       1.00960000
H       -1.28550000      -1.67100000       2.08260000
H       -2.00130000      -0.47380000      -0.73830000
