18
Properties=species:S:1:pos:R:3 gdb_71862=T pbc="F F F"
C       -0.06150000       1.51360000       0.00750000
C        0.03460000       0.01690000      -0.03470000
C        0.84960000      -0.79680000      -1.04460000
C       -0.07190000      -2.00840000      -0.72340000
O        0.53240000      -2.81590000       0.30020000
C        0.56320000      -2.06860000       1.45430000
N        1.13170000      -2.40870000       2.52990000
C       -0.23150000      -0.83220000       1.22190000
C       -1.05670000      -1.03860000      -0.02080000
H        0.88480000       1.95950000       0.33420000
H       -0.29660000       1.91810000      -0.98350000
H       -0.84170000       1.84510000       0.70010000
H        0.68460000      -0.42670000      -2.06110000
H        1.92060000      -0.94540000      -0.87290000
H       -0.40040000      -2.66040000      -1.52890000
H        1.57750000      -3.32150000       2.42330000
H       -0.63020000      -0.31080000       2.08120000
H       -2.13470000      -0.97970000      -0.08970000
