17
Properties=species:S:1:pos:R:3 gdb_86470=T pbc="F F F"
C        0.13500000       1.62440000       0.04100000
C        0.07420000       0.10660000       0.01910000
C        1.05220000      -0.65980000      -0.91130000
C        1.25380000      -1.73630000       0.22460000
C        0.65630000      -0.67480000       1.22760000
C        0.36790000      -2.88710000       0.05260000
N       -0.36630000      -3.76770000      -0.08950000
C        2.62530000      -2.16700000       0.47550000
N        3.72640000      -2.45280000       0.67740000
H        1.15490000       1.97600000       0.23230000
H       -0.19180000       2.04540000      -0.91560000
H       -0.51370000       2.03320000       0.82280000
H       -0.95030000      -0.22750000      -0.17290000
H        0.68490000      -1.03850000      -1.86510000
H        1.98580000      -0.11460000      -1.06760000
H        1.47060000      -0.13410000       1.71510000
H       -0.02730000      -1.06540000       1.98150000
