16
Properties=species:S:1:pos:R:3 gdb_14064=T pbc="F F F"
O        0.02910000       1.41720000       0.22790000
C        0.05520000       0.01990000       0.07020000
C       -0.53110000      -0.80650000       1.21160000
O       -0.98570000      -0.12660000       2.34370000
C       -1.28120000      -0.63750000      -0.07990000
C       -2.64050000       0.01170000      -0.27960000
C       -2.85960000      -1.15620000      -1.26920000
O       -1.52960000      -1.68050000      -1.01840000
H        0.86390000       1.68500000       0.62900000
H        0.88760000      -0.38780000      -0.50130000
H       -0.08280000      -1.76880000       1.44270000
H       -0.89390000       0.81510000       2.14230000
H       -3.27730000       0.01390000       0.60650000
H       -2.62000000       1.00800000      -0.72300000
H       -3.63480000      -1.87760000      -0.98920000
H       -2.98760000      -0.87390000      -2.31960000
