17
Properties=species:S:1:pos:R:3 gdb_69902=T pbc="F F F"
O       -0.09650000       1.40910000       0.18330000
C       -0.01200000       0.03600000       0.08320000
C       -0.82590000      -0.83460000       0.97260000
C        0.68690000      -0.99590000       0.96130000
C        1.23250000      -1.70690000      -0.29730000
C        0.21700000      -2.15540000      -1.27570000
C        0.50600000      -0.66330000      -1.21040000
C        1.14470000       0.02020000      -2.33300000
O        1.69670000      -0.53590000      -3.26060000
H        0.78210000       1.78690000       0.05690000
H       -1.17540000      -0.30670000       1.85470000
H       -1.51470000      -1.59280000       0.61610000
H        1.27680000      -0.85590000       1.85720000
H        2.28010000      -1.95620000      -0.40950000
H        0.61620000      -2.59980000      -2.18230000
H       -0.75020000      -2.53600000      -0.97100000
H        1.10300000       1.13140000      -2.28320000
