21
Properties=species:S:1:pos:R:3 gdb_97680=T pbc="F F F"
C        0.26310000       1.30020000       0.49850000
C       -0.07930000       0.23090000      -0.55500000
C       -1.40690000      -0.34730000      -0.37720000
C       -2.50070000      -0.82680000      -0.21440000
C       -3.82820000      -1.36420000      -0.01840000
C       -4.87690000      -0.39460000       0.50300000
C       -4.55220000       0.12750000       1.90600000
C       -4.24090000      -2.55100000      -0.79630000
O       -3.88440000      -2.68170000       0.57530000
H        1.26610000       1.70020000       0.32300000
H       -0.44990000       2.12820000       0.45790000
H        0.23150000       0.87650000       1.50570000
H       -0.00490000       0.66710000      -1.55970000
H        0.66830000      -0.57190000      -0.52040000
H       -4.96110000       0.44040000      -0.20280000
H       -5.84150000      -0.91330000       0.51010000
H       -5.33050000       0.81180000       2.25590000
H       -4.48070000      -0.70140000       2.61640000
H       -3.59840000       0.66320000       1.91370000
H       -5.29720000      -2.69090000      -1.02630000
H       -3.54350000      -2.99090000      -1.50710000
