20
Properties=species:S:1:pos:R:3 gdb_100280=T pbc="F F F"
C       -0.01760000       1.35430000      -0.13340000
O       -0.08410000      -0.06020000      -0.03940000
C       -1.39080000      -0.65180000       0.00140000
C       -2.20570000      -0.35310000      -1.25540000
C       -1.09380000      -2.15900000       0.09700000
N       -0.21260000      -2.43030000       1.24410000
H        0.69650000      -2.01500000       1.06740000
H       -1.08990000      -1.35680000       2.25870000
H       -0.09090000      -3.42620000       1.38800000
C       -2.13930000      -0.11540000       1.26540000
O       -1.75760000      -0.63300000       2.43110000
O       -2.97530000       0.75090000       1.18930000
H        1.03920000       1.61480000      -0.04060000
H       -0.38660000       1.71850000      -1.10030000
H       -0.58240000       1.84990000       0.66490000
H       -1.60630000      -0.56570000      -2.14550000
H       -3.10540000      -0.97520000      -1.27990000
H       -2.53450000       0.68590000      -1.26900000
H       -2.03240000      -2.70250000       0.24330000
H       -0.66120000      -2.48190000      -0.85990000
