17
Properties=species:S:1:pos:R:3 gdb_56730=T pbc="F F F"
C       -0.26210000       1.57660000       0.45160000
C       -0.15430000       0.09020000       0.04090000
C        0.82030000      -0.61450000       0.86840000
C        1.63410000      -1.17020000       1.55690000
C       -1.53690000      -0.56140000       0.05820000
C       -1.82280000      -1.86900000       0.69040000
O       -2.21680000      -0.65760000       1.31760000
C       -2.46070000      -0.17960000      -1.06150000
O       -2.11310000       0.36870000      -2.07600000
H        0.72190000       2.04900000       0.41780000
H       -0.92730000       2.10870000      -0.23280000
H       -0.65350000       1.65820000       1.46840000
H        0.17550000       0.05070000      -1.00510000
H        2.35980000      -1.65970000       2.15830000
H       -2.63670000      -2.48860000       0.31480000
H       -0.99010000      -2.39180000       1.15360000
H       -3.51960000      -0.45570000      -0.86280000
