16
Properties=species:S:1:pos:R:3 gdb_127335=T pbc="F F F"
C        0.38190000       1.35370000       0.02590000
N        0.06240000      -0.05670000      -0.01750000
C       -0.38540000      -0.80690000      -1.04580000
N       -0.55240000      -2.05870000      -0.67050000
C       -0.17660000      -2.02880000       0.64080000
N        0.20400000      -0.83540000       1.08060000
C       -0.18180000      -3.20910000       1.52690000
C       -0.97560000      -4.40390000       1.20350000
O        0.43640000      -4.39950000       1.01840000
H        1.43390000       1.49430000       0.28620000
H        0.19110000       1.78680000      -0.95760000
H       -0.23910000       1.85750000       0.77060000
H       -0.57210000      -0.39970000      -2.02870000
H        0.04730000      -2.98380000       2.56630000
H       -1.34440000      -5.03220000       2.01350000
H       -1.56300000      -4.40390000       0.28790000
