19
Properties=species:S:1:pos:R:3 gdb_37394=T pbc="F F F"
C       -0.07150000       1.55870000       0.02720000
C        1.47440000       1.47500000       0.02880000
C        1.98200000       1.32490000       1.46270000
N        0.94610000       1.40570000       2.53450000
C        1.46390000       0.09950000       2.11820000
C        0.70450000      -0.77180000       1.13320000
C        1.78670000      -1.07440000       0.05400000
N        1.34540000       0.12450000      -0.72430000
C       -0.00160000       0.03100000      -0.02540000
H       -0.55690000       2.05990000       0.85900000
H       -0.44200000       1.92780000      -0.93210000
H        2.04350000       2.21010000      -0.54250000
H        2.97760000       1.68880000       1.69460000
H        1.39320000       1.67320000       3.40800000
H        2.10200000      -0.44600000       2.81110000
H        0.15260000      -1.59180000       1.59910000
H        2.83280000      -1.10120000       0.37630000
H        1.57370000      -1.96060000      -0.55200000
H       -0.78740000      -0.54000000      -0.52970000
