25
Properties=species:S:1:pos:R:3 gdb_118237=T pbc="F F F"
C        0.25660000       1.56340000       0.04560000
C        0.11210000       0.03910000       0.00620000
C        0.59200000      -0.56640000      -1.31860000
C        0.58170000      -2.10520000      -1.38240000
C       -0.83600000      -2.68130000      -1.25110000
C        1.27220000      -2.57930000      -2.67900000
C        1.54490000      -4.06350000      -2.72690000
C        2.78940000      -4.61210000      -3.28010000
O        2.58740000      -4.54320000      -1.86800000
H        1.30160000       1.86620000      -0.08510000
H       -0.32520000       2.03710000      -0.75330000
H       -0.09220000       1.97380000       0.99840000
H        0.68350000      -0.40460000       0.83250000
H       -0.93670000      -0.22580000       0.18420000
H       -0.01790000      -0.16690000      -2.14280000
H        1.61660000      -0.21740000      -1.50740000
H        1.18550000      -2.48070000      -0.54440000
H       -0.83390000      -3.77480000      -1.28140000
H       -1.30380000      -2.38870000      -0.30730000
H       -1.47870000      -2.32550000      -2.06610000
H        0.65570000      -2.30350000      -3.54670000
H        2.22820000      -2.05370000      -2.78860000
H        0.66920000      -4.71390000      -2.74660000
H        2.80310000      -5.61570000      -3.70370000
H        3.54270000      -3.93260000      -3.67800000
