20
Properties=species:S:1:pos:R:3 gdb_107492=T pbc="F F F"
O        0.23550000       1.30150000       0.38580000
C        0.03620000      -0.04290000      -0.04350000
C       -1.39990000      -0.47460000      -0.00780000
C       -1.91170000      -1.62860000      -0.83490000
C       -2.54510000      -0.28030000      -1.02230000
C       -3.54220000      -0.01170000       0.11710000
C       -2.38560000      -0.19990000       1.12080000
C       -2.34130000      -0.68790000       2.51670000
N       -2.16870000       0.74790000       2.20580000
H       -0.35820000       1.85960000      -0.12840000
H        0.44350000      -0.20470000      -1.05440000
H        0.63870000      -0.65180000       0.64180000
H       -1.24970000      -1.95230000      -1.63330000
H       -2.46600000      -2.43580000      -0.36180000
H       -2.52640000       0.23070000      -1.97780000
H       -3.91320000       1.01530000       0.14580000
H       -4.38750000      -0.70450000       0.18300000
H       -3.25970000      -0.93100000       3.04530000
H       -1.47500000      -1.26730000       2.82920000
H       -1.18660000       1.01280000       2.23410000
