21
Properties=species:S:1:pos:R:3 gdb_88550=T pbc="F F F"
C       -0.87750000       1.24630000       0.17780000
C       -0.06690000      -0.01680000       0.01740000
N        1.35150000       0.12230000      -0.35470000
C        1.00710000      -0.48630000       0.94400000
C        1.49430000       0.19960000       2.17230000
C        0.72430000       0.28400000       3.43120000
N        1.00990000       1.54100000       2.71200000
C        2.44030000       1.87130000       3.04590000
C        2.96340000       0.55460000       2.41910000
H       -0.31450000       2.00810000       0.71580000
H       -1.16200000       1.63220000      -0.80750000
H       -1.79830000       1.04270000       0.73580000
H       -0.60820000      -0.82750000      -0.47240000
H        1.62210000      -0.59440000      -1.02240000
H        1.11050000      -1.57110000       1.01470000
H       -0.32560000       0.00860000       3.39530000
H        1.21060000       0.10220000       4.38870000
H        2.75050000       2.76980000       2.50990000
H        2.60890000       2.01810000       4.11810000
H        3.53880000      -0.13030000       3.04950000
H        3.50130000       0.72470000       1.48540000
