18
Properties=species:S:1:pos:R:3 gdb_119814=T pbc="F F F"
C       -0.12100000       1.48840000       0.01220000
C       -0.00770000      -0.02340000       0.00390000
O       -1.34580000      -0.56000000       0.01100000
C       -1.44970000      -1.88860000       0.00580000
N       -0.46300000      -2.69800000      -0.00500000
C       -0.97500000      -4.06410000      -0.00750000
C       -2.51150000      -3.97180000       0.00430000
O       -3.29120000      -4.88490000       0.00530000
C       -2.83740000      -2.47220000       0.01310000
H        0.87830000       1.93380000       0.00700000
H       -0.66180000       1.84500000      -0.86890000
H       -0.64880000       1.83630000       0.90460000
H        0.51620000      -0.39420000      -0.88320000
H        0.52900000      -0.40300000       0.87970000
H       -0.63480000      -4.61950000      -0.89110000
H       -0.62190000      -4.62760000       0.86580000
H       -3.41620000      -2.19090000       0.89900000
H       -3.42870000      -2.18320000      -0.86210000
