17
Properties=species:S:1:pos:R:3 gdb_114163=T pbc="F F F"
O        0.02520000       1.37300000      -0.21270000
C        0.05710000      -0.01790000       0.07780000
C       -1.37050000      -0.52490000       0.02060000
C       -2.09340000      -0.53350000      -1.37330000
C       -2.27940000      -2.05570000      -1.22110000
O       -0.95680000      -2.61650000      -1.07430000
C       -1.56920000      -2.04810000       0.08250000
C       -3.32720000      -2.87550000      -1.72330000
C       -4.23580000      -3.52560000      -2.16840000
H        0.93150000       1.68710000      -0.28020000
H        0.66360000      -0.57090000      -0.65300000
H        0.47960000      -0.20830000       1.07840000
H       -1.98120000      -0.01150000       0.76860000
H       -3.03410000       0.01860000      -1.36640000
H       -1.49440000      -0.23440000      -2.23530000
H       -1.69120000      -2.69290000       0.94590000
H       -5.03230000      -4.11050000      -2.55740000
