18
Properties=species:S:1:pos:R:3 gdb_16965=T pbc="F F F"
C       -0.24330000       1.55520000      -0.04370000
C        0.03090000       0.06220000       0.01990000
O        0.75390000      -0.38040000      -1.15190000
C        1.82160000      -1.17640000      -0.63700000
C        2.93870000      -0.23880000      -0.14240000
C        2.29280000       0.26550000       1.18520000
C        0.94160000      -0.47920000       1.14550000
O        1.31260000      -1.74110000       0.55660000
H        0.67810000       2.13550000      -0.13750000
H       -0.86970000       1.78080000      -0.91120000
H       -0.77800000       1.88650000       0.85330000
H       -0.92420000      -0.48030000       0.05980000
H        2.08760000      -1.95080000      -1.35630000
H        3.86710000      -0.78750000       0.03500000
H        3.13280000       0.55680000      -0.86390000
H        2.86590000      -0.05630000       2.05710000
H        2.18840000       1.35050000       1.23370000
H        0.44780000      -0.64120000       2.10280000
