15
Properties=species:S:1:pos:R:3 gdb_56373=T pbc="F F F"
N        0.07180000       1.53230000       0.13970000
C        0.00020000       0.07150000      -0.05080000
C        0.59950000      -0.39980000      -1.31010000
C        1.10080000      -0.71630000      -2.35480000
C        0.71670000      -0.56140000       1.08130000
N        1.27150000      -1.04720000       1.96950000
C       -1.49020000      -0.30700000       0.06120000
C       -2.35080000      -0.44240000      -1.11870000
O       -1.87990000      -1.58440000      -0.39280000
H        1.04510000       1.82250000       0.17180000
H       -0.34060000       1.97750000      -0.67610000
H        1.54810000      -1.01510000      -3.27140000
H       -1.91790000       0.01780000       1.00830000
H       -3.41440000      -0.23350000      -1.02280000
H       -1.92570000      -0.32470000      -2.11250000
