11
Properties=species:S:1:pos:R:3 gdb_4424=T pbc="F F F"
O       -0.09720000       1.28650000       0.01010000
C        0.05660000      -0.03000000       0.00220000
N        1.23360000      -0.56980000      -0.00720000
C        1.23430000      -1.94040000      -0.01440000
C        0.11580000      -2.70820000      -0.01220000
C       -1.18250000      -2.09180000      -0.00140000
O       -2.27650000      -2.56620000       0.00190000
O       -1.11070000      -0.64450000       0.00560000
H        0.79370000       1.66580000       0.00710000
H        2.21910000      -2.39790000      -0.02240000
H        0.15000000      -3.78850000      -0.01820000
