25
Properties=species:S:1:pos:R:3 gdb_120378=T pbc="F F F"
C       -0.00590000       1.57180000       0.35520000
C       -0.01770000       0.06670000       0.07350000
C       -1.41280000      -0.55450000       0.21390000
C       -1.46810000      -2.05700000      -0.13850000
C       -0.63370000      -2.89720000       0.80930000
C       -1.38390000      -3.59570000       1.66020000
C       -2.85750000      -3.38560000       1.41120000
C       -2.87780000      -2.72350000       0.00860000
C       -4.09490000      -1.83860000      -0.25640000
H        0.99970000       1.99150000       0.25050000
H       -0.66480000       2.10970000      -0.33580000
H       -0.35140000       1.78620000       1.37270000
H        0.36030000      -0.11930000      -0.94120000
H        0.68050000      -0.43460000       0.75470000
H       -1.77160000      -0.40530000       1.24130000
H       -2.10610000      -0.00800000      -0.43850000
H       -1.11650000      -2.15810000      -1.17490000
H        0.45060000      -2.87770000       0.80880000
H       -1.00500000      -4.22660000       2.45730000
H       -3.43860000      -4.31490000       1.43710000
H       -3.29650000      -2.72960000       2.17830000
H       -2.89440000      -3.54480000      -0.71880000
H       -4.16030000      -1.01050000       0.45660000
H       -4.07240000      -1.41120000      -1.26480000
H       -5.01830000      -2.42130000      -0.16800000
