17
Properties=species:S:1:pos:R:3 gdb_53596=T pbc="F F F"
C       -0.18540000       1.44830000      -0.35230000
C       -0.04510000       0.00340000      -0.24510000
C        0.07720000      -1.19130000      -0.16570000
C        0.19530000      -2.64120000      -0.04990000
C       -1.06830000      -3.26790000       0.52100000
O       -2.11320000      -3.60320000      -0.37230000
C       -1.46590000      -4.68370000       0.31360000
C       -0.66410000      -5.61430000      -0.53650000
O       -0.38360000      -6.73610000      -0.19920000
H        0.59340000       1.96830000       0.21620000
H       -0.11250000       1.77760000      -1.39450000
H       -1.15560000       1.78110000       0.03250000
H        0.41560000      -3.08290000      -1.02750000
H        1.03600000      -2.89830000       0.60880000
H       -1.40760000      -2.81230000       1.45250000
H       -2.04820000      -5.17410000       1.09260000
H       -0.35690000      -5.19430000      -1.51840000
