23
Properties=species:S:1:pos:R:3 gdb_93688=T pbc="F F F"
C       -0.17400000       1.60150000       0.00720000
C        0.00070000       0.07310000      -0.01890000
C       -1.36770000      -0.60520000       0.06410000
C        0.75990000      -0.40210000      -1.27690000
C        2.25660000      -0.06280000      -1.23580000
C        2.87070000      -0.56280000       0.06650000
O        4.21720000      -0.11320000       0.12090000
C        2.05640000      -0.02160000       1.24830000
O        0.69110000      -0.38030000       1.16140000
H        0.77100000       2.13830000      -0.10670000
H       -0.83250000       1.92080000      -0.80660000
H       -0.62620000       1.90640000       0.95540000
H       -1.97140000      -0.36940000      -0.81750000
H       -1.24710000      -1.69020000       0.12630000
H       -1.90730000      -0.27030000       0.95470000
H        0.64140000      -1.49000000      -1.35300000
H        0.29600000       0.02950000      -2.17080000
H        2.77710000      -0.50670000      -2.09040000
H        2.41910000       1.02010000      -1.29650000
H        2.82260000      -1.66400000       0.08560000
H        4.62560000      -0.48290000       0.91040000
H        2.41580000      -0.44420000       2.19420000
H        2.19950000       1.06910000       1.29800000
