17
Properties=species:S:1:pos:R:3 gdb_51136=T pbc="F F F"
O       -0.38270000       0.18820000       0.24420000
C       -0.00620000       1.32740000       0.14820000
C        1.41800000       1.73850000      -0.18220000
C        1.45940000       2.72510000      -1.32690000
C        1.09340000       2.29170000      -2.74970000
C        1.85910000       3.26740000      -3.61880000
C        2.60240000       4.11170000      -2.89860000
C        2.39920000       3.85800000      -1.44230000
O        1.02730000       4.05660000      -1.01540000
H       -0.70050000       2.18290000       0.30300000
H        1.83610000       2.22300000       0.70950000
H        2.00150000       0.83980000      -0.40250000
H        1.39130000       1.25250000      -2.94000000
H        0.01110000       2.34670000      -2.91990000
H        1.77050000       3.27160000      -4.69910000
H        3.24060000       4.89550000      -3.28600000
H        3.14920000       4.09640000      -0.69380000
