18
Properties=species:S:1:pos:R:3 gdb_89867=T pbc="F F F"
C        0.06230000       1.51990000       0.03490000
N        0.08740000       0.07490000       0.03260000
C        1.02500000      -0.60680000      -0.89120000
C        1.40440000      -1.53850000       0.25660000
C        0.65220000      -0.61500000       1.21530000
O        1.25600000      -2.93860000       0.22020000
C        2.57990000      -2.40020000       0.45260000
C        3.55870000      -2.57470000      -0.58500000
C        4.39300000      -2.69990000      -1.44140000
H        1.05570000       1.97560000       0.21530000
H       -0.30760000       1.88540000      -0.92860000
H       -0.62080000       1.87810000       0.81200000
H        0.55410000      -1.07230000      -1.76280000
H        1.86890000       0.01820000      -1.22460000
H        1.32550000       0.01150000       1.82270000
H       -0.08830000      -1.08860000       1.86870000
H        2.94130000      -2.55110000       1.46950000
H        5.12630000      -2.81940000      -2.20050000
