16
Properties=species:S:1:pos:R:3 gdb_26964=T pbc="F F F"
N        0.15370000       1.40170000       0.09220000
C        0.01710000       0.02790000       0.01110000
C       -1.04190000      -0.79990000      -0.19800000
N       -0.57160000      -2.10860000      -0.30800000
C        0.70280000      -2.00840000      -0.15100000
O        1.14840000      -0.73240000       0.04150000
N       -2.38350000      -0.39190000      -0.29170000
C       -3.22980000      -1.07920000      -1.28080000
C       -3.40840000      -1.33990000       0.16970000
H        0.72520000       1.70560000       0.87250000
H       -0.76190000       1.83380000       0.13320000
H        1.45120000      -2.78400000      -0.13920000
H       -3.92530000      -0.43860000      -1.81520000
H       -2.76060000      -1.86230000      -1.86900000
H       -3.05860000      -2.29650000       0.54600000
H       -4.23730000      -0.89210000       0.71030000
