21
Properties=species:S:1:pos:R:3 gdb_40115=T pbc="F F F"
C        0.47240000       1.42540000      -0.11990000
C        1.43490000       0.32060000       0.24660000
C       -0.02170000       0.01230000      -0.00710000
C       -0.89360000      -0.45240000       1.17090000
C       -1.39860000      -1.79810000       0.70260000
C       -1.15220000      -1.99350000      -0.59270000
C       -0.44880000      -0.83270000      -1.20420000
C       -0.98980000      -0.23850000      -2.49500000
C        0.33950000      -0.94570000      -2.48450000
H        0.17800000       2.13280000       0.64890000
H        0.56130000       1.86640000      -1.10840000
H        2.16440000       0.01420000      -0.49530000
H        1.79250000       0.26910000       1.27010000
H       -0.32670000      -0.50750000       2.10800000
H       -1.73440000       0.23290000       1.35710000
H       -1.93130000      -2.48360000       1.35140000
H       -1.44770000      -2.86120000      -1.17290000
H       -1.83630000      -0.72880000      -2.96410000
H       -0.99100000       0.84230000      -2.58970000
H        1.23410000      -0.34010000      -2.59040000
H        0.41450000      -1.92180000      -2.95290000
