21
Properties=species:S:1:pos:R:3 gdb_73255=T pbc="F F F"
C       -0.14110000       1.55030000       0.00340000
C        0.00500000       0.03220000      -0.02070000
C       -1.21170000      -0.78670000       0.51130000
O       -0.37600000      -1.51860000       1.42620000
C        0.73800000      -0.62560000       1.18580000
C        2.04110000      -1.35050000       0.91300000
C        1.95940000      -2.23020000      -0.34180000
C        1.35380000      -1.48180000      -1.49940000
C        0.50060000      -0.46790000      -1.34920000
H        0.82370000       2.04070000      -0.16590000
H       -0.82510000       1.89130000      -0.78240000
H       -0.53460000       1.89710000       0.96430000
H       -1.95980000      -0.17680000       1.03860000
H       -1.71640000      -1.44440000      -0.20420000
H        0.85690000       0.07200000       2.02830000
H        2.82360000      -0.59160000       0.78330000
H        2.31370000      -1.94820000       1.79010000
H        2.95480000      -2.60240000      -0.60770000
H        1.35060000      -3.11690000      -0.12110000
H        1.62590000      -1.80410000      -2.50160000
H        0.08930000       0.02660000      -2.22790000
