17
Properties=species:S:1:pos:R:3 gdb_29820=T pbc="F F F"
C       -0.04760000       1.45060000       0.01520000
N        0.00270000      -0.00820000      -0.00330000
C       -1.17850000      -0.70960000      -0.00580000
C       -1.21930000      -2.07210000      -0.03950000
N       -2.42110000      -2.80710000      -0.14060000
C        0.03330000      -2.75570000      -0.05370000
C        1.20670000      -2.07270000      -0.02750000
C        1.27170000      -0.62390000      -0.00360000
O        2.30450000       0.03720000       0.01340000
H        0.98110000       1.80680000       0.01580000
H       -0.57050000       1.82710000      -0.86960000
H       -0.56270000       1.80610000       0.91330000
H       -2.07800000      -0.10440000       0.00970000
H       -3.23970000      -2.25330000       0.07810000
H       -2.41980000      -3.63300000       0.44610000
H        0.03290000      -3.84200000      -0.09080000
H        2.16290000      -2.58100000      -0.03250000
