23
Properties=species:S:1:pos:R:3 gdb_115644=T pbc="F F F"
C        0.35820000       1.63080000       0.21740000
C       -0.18480000       0.27030000      -0.23160000
C        0.75560000      -0.43020000      -1.19720000
O        2.04870000      -0.71160000      -0.60170000
C        1.95550000      -2.10590000      -0.94920000
C        0.53510000      -1.92380000      -1.52240000
C       -0.62440000      -2.78580000      -0.95630000
C       -0.61390000      -3.60610000      -2.27540000
C        0.19740000      -2.45820000      -2.93510000
H        1.33990000       1.51140000       0.68390000
H        0.47120000       2.31240000      -0.63300000
H       -0.31090000       2.10550000       0.94100000
H       -0.34420000      -0.37470000       0.64100000
H       -1.16060000       0.39320000      -0.72050000
H        0.88230000       0.18260000      -2.10470000
H        2.71980000      -2.39770000      -1.68340000
H        2.04360000      -2.75550000      -0.06820000
H       -0.43690000      -3.32030000      -0.02090000
H       -1.54570000      -2.20640000      -0.84390000
H       -0.02490000      -4.52270000      -2.18300000
H       -1.57960000      -3.86020000      -2.71760000
H       -0.44820000      -1.76220000      -3.48110000
H        1.03820000      -2.72780000      -3.58070000
