20
Properties=species:S:1:pos:R:3 gdb_13982=T pbc="F F F"
C       -0.66570000       1.41020000      -0.51600000
O       -0.86950000       0.02230000      -0.61490000
C       -0.59470000      -0.66310000       0.58860000
C       -0.81470000      -2.13290000       0.38570000
C       -0.51640000      -2.83860000      -0.90550000
C       -1.92470000      -2.86860000      -0.36800000
C       -2.03130000      -3.90480000       0.75700000
C       -0.89580000      -3.15370000       1.53030000
H       -0.90060000       1.84640000      -1.49000000
H       -1.31910000       1.86680000       0.24460000
H        0.37780000       1.65330000      -0.25940000
H        0.44630000      -0.47030000       0.90900000
H       -1.24890000      -0.28960000       1.39750000
H       -0.36580000      -2.17780000      -1.75150000
H        0.08720000      -3.74480000      -0.91620000
H       -2.75150000      -2.45290000      -0.93100000
H       -2.98340000      -3.87010000       1.29120000
H       -1.83070000      -4.94330000       0.47240000
H        0.02170000      -3.71380000       1.74040000
H       -1.25640000      -2.71780000       2.46630000
