23
Properties=species:S:1:pos:R:3 gdb_60140=T pbc="F F F"
C       -0.15130000       1.52750000      -0.00660000
C       -0.11220000      -0.00630000       0.01750000
C        0.95390000      -0.50070000       1.00560000
C       -1.51370000      -0.57200000       0.32640000
C       -1.62580000      -2.07310000       0.16110000
C       -2.92710000      -2.84540000      -0.00240000
C       -3.87040000      -2.10610000      -0.94490000
O       -2.82550000      -1.95670000      -1.94360000
C       -1.93570000      -2.74460000      -1.14330000
H        0.82880000       1.94640000      -0.25810000
H       -0.87370000       1.89650000      -0.74210000
H       -0.43990000       1.92760000       0.97330000
H        0.16670000      -0.35360000      -0.98710000
H        1.05600000      -1.59010000       0.99560000
H        1.93550000      -0.07890000       0.76540000
H        0.70630000      -0.19780000       2.03060000
H       -1.79760000      -0.29200000       1.35070000
H       -2.23250000      -0.08990000      -0.34340000
H       -0.91950000      -2.65570000       0.74990000
H       -3.19700000      -3.68460000       0.62480000
H       -4.67590000      -2.74040000      -1.33190000
H       -4.28350000      -1.14360000      -0.62090000
H       -1.31900000      -3.47580000      -1.65430000
