17
Properties=species:S:1:pos:R:3 gdb_51355=T pbc="F F F"
O       -0.11380000      -0.04870000      -0.04450000
C       -0.08150000       1.14530000      -0.04430000
O        1.04420000       1.84560000       0.17760000
C        0.98230000       3.27080000       0.15790000
C        1.74700000       3.98200000       1.27760000
C        3.13550000       3.72460000       0.58620000
C        3.52280000       5.21440000       0.65600000
C        2.01120000       5.22360000       0.35370000
C        2.12020000       3.97250000      -0.58850000
H       -0.96230000       1.79290000      -0.22410000
H       -0.04210000       3.60420000      -0.04870000
H        1.54430000       3.99860000       2.34840000
H        3.75680000       2.84010000       0.71500000
H        3.83090000       5.59910000       1.63310000
H        4.18370000       5.59010000      -0.13120000
H        1.33580000       6.06860000       0.21430000
H        2.34500000       3.97820000      -1.65500000
