18
Properties=species:S:1:pos:R:3 gdb_37014=T pbc="F F F"
C        0.01030000       1.50080000       0.10080000
O        1.31760000       1.50450000      -0.52070000
C        1.38970000       0.06430000      -0.53130000
C       -0.02360000      -0.02220000       0.04090000
N       -0.55200000      -0.90190000       1.07790000
C       -1.09870000      -0.97380000      -0.27290000
C       -2.56260000      -0.77660000      -0.65000000
O       -2.46400000      -1.84260000      -1.62410000
C       -1.10130000      -2.14050000      -1.25820000
H        0.02840000       1.91610000       1.11590000
H       -0.73290000       2.03610000      -0.50280000
H        1.53780000      -0.33770000      -1.54230000
H        2.18330000      -0.31660000       0.12710000
H        0.08000000      -1.67840000       1.26740000
H       -3.27440000      -1.00730000       0.15210000
H       -2.82890000       0.18090000      -1.11440000
H       -0.41520000      -2.06630000      -2.11220000
H       -1.00200000      -3.13590000      -0.80230000
