16
Properties=species:S:1:pos:R:3 gdb_67360=T pbc="F F F"
O        0.07280000       1.41760000      -0.04170000
C        0.00630000       0.04940000       0.00250000
C        0.03210000      -0.81410000       1.32630000
C       -1.44340000      -0.46110000       1.59080000
C       -1.33160000      -0.78780000       0.09000000
N       -0.44010000      -1.97400000       0.45190000
C        0.54930000      -2.13700000      -0.64320000
C        0.87610000      -0.68850000      -0.97230000
O        1.61350000      -0.17080000      -1.77550000
H        0.71190000       1.63000000      -0.74190000
H        0.85670000      -0.93200000       2.03170000
H       -2.00330000      -1.17820000       2.19330000
H       -1.65570000       0.57630000       1.84710000
H       -2.11650000      -0.87460000      -0.66360000
H        1.42470000      -2.69700000      -0.29980000
H        0.11010000      -2.67120000      -1.49140000
