19
Properties=species:S:1:pos:R:3 gdb_32978=T pbc="F F F"
C        0.05530000       1.44860000       0.01270000
N        0.00550000      -0.00060000       0.02090000
C       -0.01550000      -0.80070000      -1.10340000
C       -0.01620000      -2.08850000      -0.64320000
N        0.00450000      -2.10690000       0.72950000
C        0.01810000      -0.84250000       1.10600000
C        0.08560000      -0.38610000       2.52780000
C        1.51930000      -0.07540000       2.99640000
O        1.56310000       0.37510000       4.33860000
H        1.07990000       1.81740000      -0.10790000
H       -0.55290000       1.83230000      -0.80990000
H       -0.34720000       1.84110000       0.94780000
H       -0.03670000      -0.37600000      -2.09390000
H       -0.04040000      -3.00060000      -1.22000000
H       -0.53800000       0.49750000       2.70510000
H       -0.32160000      -1.19780000       3.13910000
H        2.15070000      -0.96180000       2.83820000
H        1.94580000       0.73700000       2.39780000
H        1.30080000      -0.35850000       4.90390000
