21
Properties=species:S:1:pos:R:3 gdb_109891=T pbc="F F F"
C       -0.02540000       1.79730000      -0.24920000
C       -0.22120000       0.27930000      -0.16220000
C        0.61920000      -0.47290000      -1.18770000
C        2.17780000      -0.57630000      -0.93700000
O        2.68590000      -0.12060000       0.28610000
C        2.06980000      -2.12060000      -1.04430000
O        1.87030000      -2.68910000       0.27380000
C        0.43320000      -2.77710000       0.05790000
C        0.53540000      -2.02840000      -1.27950000
H        1.01950000       2.05800000      -0.06010000
H       -0.29870000       2.17650000      -1.24040000
H       -0.64290000       2.31860000       0.48880000
H        0.04230000      -0.05010000       0.84910000
H       -1.28020000       0.02750000      -0.30750000
H        0.43840000      -0.04380000      -2.17980000
H        2.76480000      -0.11620000      -1.73740000
H        2.52470000      -0.84240000       0.91300000
H        2.79240000      -2.68650000      -1.63690000
H        0.12560000      -3.82520000      -0.03890000
H       -0.13730000      -2.30970000       0.86670000
H        0.01570000      -2.45790000      -2.13450000
