19
Properties=species:S:1:pos:R:3 gdb_6918=T pbc="F F F"
C       -0.15780000       1.42460000       0.34830000
C        0.05030000      -0.04950000       0.06740000
C       -1.18850000      -0.78040000      -0.41200000
C        1.39390000      -0.49690000      -0.46800000
C        0.99690000      -0.83980000       0.94660000
N        1.69830000      -0.21130000       2.02820000
C        1.10480000       0.06080000       3.22430000
O       -0.07390000      -0.08200000       3.46530000
H        0.76390000       1.90610000       0.68390000
H       -0.50050000       1.94300000      -0.55430000
H       -0.91060000       1.56180000       1.13090000
H       -1.55620000      -0.35380000      -1.35240000
H       -0.98820000      -1.84250000      -0.58510000
H       -1.99120000      -0.70650000       0.32980000
H        1.43730000      -1.30350000      -1.19230000
H        2.15830000       0.26320000      -0.59890000
H        0.70680000      -1.86940000       1.14570000
H        2.70420000      -0.15370000       1.98070000
H        1.83460000       0.44690000       3.96520000
