22
Properties=species:S:1:pos:R:3 gdb_94199=T pbc="F F F"
C        0.13290000       1.66800000      -0.14760000
C       -0.02080000       0.16570000       0.04090000
C        0.83760000      -0.76410000      -0.84000000
O        1.38540000      -1.44320000       0.31070000
C        0.68530000      -0.56070000       1.23440000
C        1.67860000       0.24430000       2.06380000
C       -0.23630000      -1.36190000       2.13460000
C       -0.88300000      -2.60540000       1.65870000
N        0.21560000      -2.66510000       2.64490000
H        1.18260000       1.97630000      -0.15420000
H       -0.30740000       1.97860000      -1.10140000
H       -0.37720000       2.22570000       0.64500000
H       -1.07990000      -0.10260000       0.00630000
H        0.29840000      -1.45010000      -1.50340000
H        1.62190000      -0.25620000      -1.41690000
H        2.39420000       0.77170000       1.42880000
H        1.16040000       0.97800000       2.69040000
H        2.23730000      -0.42730000       2.72280000
H       -0.75860000      -0.75750000       2.87580000
H       -1.85950000      -2.88960000       2.04050000
H       -0.66690000      -2.93340000       0.64640000
H        1.06430000      -2.91700000       2.13880000
