19
Properties=species:S:1:pos:R:3 gdb_36687=T pbc="F F F"
C       -0.10320000      -1.19440000      -0.02360000
C       -0.03470000       0.00070000       0.08550000
C        0.08090000       1.44820000       0.20540000
C        1.46550000       1.97710000      -0.22470000
C        1.55350000       3.48560000      -0.08940000
O        1.31040000       3.96830000       1.27020000
C        2.50470000       4.75370000       1.21470000
C        3.71220000       3.88190000       1.10700000
C        2.90220000       4.20630000      -0.13510000
H       -0.17800000      -2.24950000      -0.11350000
H       -0.70030000       1.92900000      -0.39860000
H       -0.10270000       1.75430000       1.24190000
H        2.23920000       1.49680000       0.38150000
H        1.65790000       1.70550000      -1.26940000
H        0.83080000       3.96980000      -0.76110000
H        2.47170000       5.75680000       1.62290000
H        4.66670000       4.39720000       1.15490000
H        3.70240000       2.89150000       1.55210000
H        3.32300000       4.69860000      -1.00100000
