15
Properties=species:S:1:pos:R:3 gdb_77838=T pbc="F F F"
C        0.01710000       1.51510000      -0.09560000
N       -0.00460000       0.05920000       0.06610000
C       -1.15680000      -0.58240000       0.81890000
C       -0.21110000      -1.80770000       1.01600000
C        0.08290000      -2.60200000      -0.16640000
N        0.30670000      -3.29790000      -1.06130000
C        0.69300000      -0.56050000       1.26420000
C       -0.49090000       0.02790000       2.08800000
O       -0.71310000       0.78750000       2.97370000
H        1.00970000       1.80130000      -0.45350000
H       -0.71040000       1.78090000      -0.86730000
H       -0.20930000       2.08520000       0.81710000
H       -2.17780000      -0.57440000       0.44460000
H       -0.41230000      -2.43890000       1.88310000
H        1.77200000      -0.52760000       1.39530000
