21
Properties=species:S:1:pos:R:3 gdb_10339=T pbc="F F F"
C        0.24430000       1.41890000      -0.29880000
C        0.04360000      -0.09730000      -0.21850000
C       -1.40560000      -0.53880000       0.09580000
C       -2.39850000      -0.19290000      -1.02650000
C       -3.85590000      -0.50020000      -0.66850000
C       -1.39070000      -2.05530000       0.31560000
N       -1.47090000      -2.46280000       1.61640000
O       -1.27320000      -2.84470000      -0.60360000
H        1.29950000       1.65790000      -0.46450000
H       -0.32450000       1.86750000      -1.11810000
H       -0.06470000       1.91150000       0.63030000
H        0.34960000      -0.57300000      -1.15700000
H        0.70580000      -0.50160000       0.55750000
H       -1.72500000      -0.03860000       1.02190000
H       -2.30390000       0.86840000      -1.27820000
H       -2.10850000      -0.76500000      -1.91420000
H       -3.99740000      -1.56570000      -0.46160000
H       -4.17750000       0.06120000       0.21670000
H       -4.52640000      -0.23220000      -1.49070000
H       -1.63730000      -1.82240000       2.37160000
H       -1.46050000      -3.45130000       1.80930000
