21
Properties=species:S:1:pos:R:3 gdb_59182=T pbc="F F F"
C        0.13510000       1.43130000      -0.06200000
C        0.13420000      -0.08520000       0.15250000
O        0.61440000      -0.41930000       1.45430000
C       -1.27360000      -0.65990000       0.08670000
C       -2.11500000      -0.66430000      -1.22980000
C       -1.24180000      -1.83940000      -1.75630000
C       -1.55130000      -2.15170000      -0.25410000
O       -1.09810000      -3.20300000       0.51580000
C       -3.02590000      -1.72750000      -0.55210000
H        1.14670000       1.83790000       0.05380000
H       -0.21350000       1.69020000      -1.06710000
H       -0.51370000       1.92170000       0.67080000
H        0.77880000      -0.54790000      -0.60870000
H        1.51230000      -0.08220000       1.53300000
H       -1.82530000      -0.30330000       0.96420000
H       -2.44920000       0.20220000      -1.79560000
H       -1.71710000      -2.49430000      -2.49300000
H       -0.20830000      -1.62800000      -2.03230000
H       -1.41730000      -4.02450000       0.12670000
H       -3.62200000      -1.39530000       0.30150000
H       -3.59720000      -2.37300000      -1.22590000
