17
Properties=species:S:1:pos:R:3 gdb_72333=T pbc="F F F"
O        0.23130000       1.41400000       0.12240000
C        0.09170000       0.02390000       0.00380000
C        0.64950000      -0.54590000      -1.31960000
C       -0.63670000      -0.74120000      -2.13190000
C       -1.75270000      -0.76660000      -1.38290000
C       -1.31530000      -0.62450000       0.02870000
C       -1.53670000      -0.12350000       1.47340000
C       -0.08930000      -0.72230000       1.35360000
O       -0.65420000      -1.85460000       0.61850000
H       -0.02550000       1.81560000      -0.71590000
H        1.36470000       0.13300000      -1.79480000
H        1.14480000      -1.51070000      -1.18000000
H       -0.61570000      -0.90300000      -3.20500000
H       -2.76020000      -0.93430000      -1.74060000
H       -1.64080000       0.95070000       1.62350000
H       -2.21330000      -0.72340000       2.08200000
H        0.62470000      -0.93790000       2.15010000
