23
Properties=species:S:1:pos:R:3 gdb_68784=T pbc="F F F"
C       -0.00420000       1.57220000       0.07650000
C       -0.02510000       0.07080000       0.05840000
C        1.14680000      -0.77220000      -0.36610000
C        0.59230000      -0.95110000       1.02690000
C        1.41610000      -0.76170000       2.26930000
C       -0.69060000      -1.80210000       0.97150000
C       -0.58730000      -3.26990000       0.57440000
O       -1.32070000      -1.67980000       2.24310000
C       -1.29380000      -0.78610000      -0.06350000
H        0.97860000       1.95290000       0.37450000
H       -0.22800000       1.98560000      -0.91500000
H       -0.74520000       1.97330000       0.77740000
H        1.03810000      -1.53750000      -1.13230000
H        2.10310000      -0.25730000      -0.40200000
H        2.10370000       0.08330000       2.15670000
H        0.77660000      -0.57290000       3.13540000
H        2.02320000      -1.64910000       2.48690000
H       -0.05380000      -3.83590000       1.34450000
H       -1.58700000      -3.70910000       0.46130000
H       -0.06580000      -3.39950000      -0.37760000
H       -2.17040000      -2.13070000       2.19350000
H       -2.18040000      -0.30660000       0.35880000
H       -1.52690000      -1.16400000      -1.06610000
