16
Properties=species:S:1:pos:R:3 gdb_65855=T pbc="F F F"
O       -0.08830000       1.40470000       0.01680000
C       -0.01160000      -0.01900000      -0.00630000
C        0.58340000      -0.55180000       1.33860000
N       -0.58080000      -0.62850000       2.19110000
C       -1.78530000      -0.64230000       1.53840000
O       -2.87430000      -0.76060000       2.05040000
C       -1.47010000      -0.51280000       0.04500000
C        0.75230000      -0.48240000      -1.16410000
C        1.40730000      -0.83330000      -2.10900000
H        0.80030000       1.75200000      -0.11880000
H        1.06620000      -1.52740000       1.19400000
H        1.33050000       0.15180000       1.72000000
H       -0.53730000      -0.77420000       3.18670000
H       -2.14200000       0.18910000      -0.44840000
H       -1.57840000      -1.49410000      -0.42490000
H        1.97370000      -1.14810000      -2.95090000
