18
Properties=species:S:1:pos:R:3 gdb_83805=T pbc="F F F"
O        0.23340000       1.33500000      -0.08390000
C        0.04540000      -0.02990000      -0.01080000
C       -0.45480000      -0.69670000       1.24960000
O       -0.80540000       0.17430000       2.28660000
C       -2.17950000       0.18170000       2.63770000
C       -3.06110000       0.55600000       1.46260000
N       -2.48950000       1.55650000       0.54740000
C       -2.60050000       0.13840000       0.11290000
C       -1.33760000      -0.66650000       0.00510000
H       -0.54570000       1.74580000       0.33190000
H        0.80930000      -0.56100000      -0.57120000
H       -0.02860000      -1.64130000       1.58600000
H       -2.49950000      -0.79810000       3.02830000
H       -2.27100000       0.91650000       3.44390000
H       -4.12810000       0.59200000       1.66720000
H       -3.21780000       2.11520000       0.11370000
H       -3.35600000      -0.07920000      -0.63610000
H       -1.45830000      -1.59790000      -0.53940000
