23
Properties=species:S:1:pos:R:3 gdb_95507=T pbc="F F F"
C       -0.09470000       1.57420000      -0.01510000
C       -0.00960000       0.03120000       0.01610000
C       -1.44150000      -0.54230000       0.05260000
C        0.69480000      -0.46000000      -1.23240000
C        1.93200000      -0.95160000      -1.27660000
C        2.82340000      -1.07820000      -0.06930000
C        2.27640000      -0.27610000       1.11960000
C        0.76410000      -0.47130000       1.25760000
O        0.23920000       0.19850000       2.39940000
H        0.89700000       2.03480000      -0.02670000
H       -0.61880000       1.90140000      -0.91930000
H       -0.63750000       1.94880000       0.85560000
H       -2.02800000      -0.18110000      -0.79900000
H       -1.42920000      -1.63660000       0.01110000
H       -1.94830000      -0.23850000       0.97250000
H        0.11350000      -0.39110000      -2.15070000
H        2.33990000      -1.29070000      -2.22630000
H        2.92280000      -2.14010000       0.20180000
H        3.83980000      -0.74670000      -0.31550000
H        2.77220000      -0.58660000       2.04850000
H        2.49160000       0.78990000       0.98880000
H        0.57010000      -1.55490000       1.34220000
H        0.70750000      -0.12700000       3.17420000
