15
Properties=species:S:1:pos:R:3 gdb_42303=T pbc="F F F"
O       -0.19920000      -0.04350000      -0.06920000
C       -0.10090000       1.15910000      -0.05860000
C        1.17970000       1.84360000       0.03200000
C        2.21900000       2.44750000       0.10180000
C       -1.32120000       2.10480000      -0.11120000
O       -2.48850000       1.40930000      -0.48200000
C       -3.37410000       1.30130000       0.63340000
C       -2.77140000       2.18430000       1.68940000
C       -1.60720000       2.66300000       1.26680000
H        3.14820000       2.96050000       0.16400000
H       -1.10310000       2.89030000      -0.85170000
H       -4.37740000       1.62550000       0.32310000
H       -3.44970000       0.25400000       0.96280000
H       -3.24190000       2.37370000       2.64560000
H       -0.92370000       3.31250000       1.79570000
