16
Properties=species:S:1:pos:R:3 gdb_24644=T pbc="F F F"
C       -0.14070000       1.41990000      -0.14020000
C        1.25760000       0.97540000       0.11900000
C        0.14590000      -0.06290000       0.05370000
C       -0.29520000      -0.72910000       1.29000000
N       -0.28460000      -0.02860000       2.43650000
C       -0.69560000      -0.69650000       3.50750000
N       -1.10550000      -1.96660000       3.53680000
C       -1.07340000      -2.56150000       2.34310000
N       -0.68580000      -2.01060000       1.19640000
H       -0.66780000       1.91310000       0.66790000
H       -0.41760000       1.73400000      -1.14000000
H        1.97080000       0.97480000      -0.69730000
H        1.67130000       1.16950000       1.10140000
H        0.10390000      -0.70290000      -0.81810000
H       -0.69920000      -0.15670000       4.45270000
H       -1.39700000      -3.60000000       2.30280000
