24
Properties=species:S:1:pos:R:3 gdb_123177=T pbc="F F F"
O       -0.14290000       1.46370000      -0.20550000
C       -0.00880000       0.06540000       0.00290000
C       -1.39600000      -0.55800000      -0.07270000
C       -1.38380000      -2.07540000       0.13390000
C       -2.78010000      -2.70080000       0.05450000
C       -2.76880000      -4.21470000       0.26410000
N       -4.12120000      -4.76140000       0.21810000
C       -4.60880000      -5.16520000      -1.09650000
C       -4.23490000      -6.18410000      -0.07710000
H        0.73090000       1.86110000      -0.15130000
H        0.64540000      -0.38970000      -0.75950000
H        0.44250000      -0.14950000       0.98590000
H       -2.03330000      -0.07970000       0.68110000
H       -1.83280000      -0.31340000      -1.04890000
H       -0.73130000      -2.54210000      -0.61760000
H       -0.93590000      -2.30890000       1.11000000
H       -3.43850000      -2.24850000       0.80570000
H       -3.22820000      -2.47680000      -0.92250000
H       -2.10780000      -4.69090000      -0.48580000
H       -2.34870000      -4.45050000       1.25040000
H       -5.65190000      -4.94670000      -1.30620000
H       -3.93830000      -5.04780000      -1.94730000
H       -3.31760000      -6.74510000      -0.25130000
H       -4.99990000      -6.72370000       0.47430000
