16
Properties=species:S:1:pos:R:3 gdb_17209=T pbc="F F F"
C       -0.27100000       1.33990000       0.11370000
C        1.17330000       0.87810000      -0.04260000
C        0.04800000      -0.10360000      -0.04340000
O       -0.12500000      -1.06370000       1.01610000
C       -0.48900000      -2.08540000       0.06850000
C       -1.98860000      -2.10610000      -0.26850000
O       -1.80010000      -1.14140000      -1.33800000
C       -0.37960000      -1.09720000      -1.11110000
H       -0.58140000       1.66620000       1.10040000
H       -0.75560000       1.85240000      -0.71040000
H        1.68830000       1.07630000      -0.97730000
H        1.80280000       0.90150000       0.84040000
H        0.05410000      -3.01910000       0.21610000
H       -2.36530000      -3.05910000      -0.66040000
H       -2.64460000      -1.73810000       0.52710000
H        0.20650000      -1.19220000      -2.02670000
