18
Properties=species:S:1:pos:R:3 gdb_3594=T pbc="F F F"
C       -0.06040000       1.54660000      -0.02080000
C        0.00870000       0.03620000       0.01360000
C        1.32630000      -0.67940000      -0.19030000
C        0.66180000      -0.69580000       1.16230000
N        1.27410000       0.07440000       2.20990000
C        0.64870000      -0.00020000       3.52650000
C        1.94830000      -0.67880000       3.26230000
H        0.80800000       1.98400000       0.47630000
H       -0.09150000       1.91310000      -1.05280000
H       -0.95730000       1.91410000       0.49070000
H       -0.86150000      -0.46480000      -0.40360000
H        1.35150000      -1.59470000      -0.77140000
H        2.21270000      -0.05990000      -0.27750000
H        0.19660000      -1.63640000       1.47350000
H        0.61290000       0.92890000       4.08840000
H       -0.22990000      -0.63380000       3.63720000
H        1.93770000      -1.76550000       3.19540000
H        2.87910000      -0.25420000       3.62760000
