20
Properties=species:S:1:pos:R:3 gdb_94389=T pbc="F F F"
C       -0.56240000       1.35390000      -0.13710000
C        0.13850000       0.00520000      -0.14890000
C        1.58010000      -0.12020000      -0.71910000
C        1.88040000      -1.17950000       0.37540000
C        0.65960000      -0.65080000       1.16390000
C        0.94260000       0.23600000       2.40670000
N        0.22300000      -0.40170000       3.52250000
C       -0.35440000      -1.40840000       3.01610000
O       -0.21400000      -1.67790000       1.69760000
H        0.07240000       2.14150000       0.28250000
H       -0.82490000       1.65720000      -1.15620000
H       -1.48870000       1.31940000       0.44700000
H       -0.50240000      -0.73960000      -0.63350000
H        1.68390000      -0.42700000      -1.76130000
H        2.15420000       0.79910000      -0.56680000
H        1.69750000      -2.19760000       0.02270000
H        2.84960000      -1.14370000       0.87930000
H        2.01240000       0.28820000       2.63740000
H        0.58720000       1.26450000       2.28730000
H       -0.98150000      -2.11090000       3.55460000
