18
Properties=species:S:1:pos:R:3 gdb_71140=T pbc="F F F"
C        0.01850000       1.50420000       0.01930000
C        0.00140000      -0.00470000      -0.03080000
C       -1.32570000      -0.73070000       0.34380000
C       -0.48370000      -1.55090000       1.30300000
C        0.79960000      -2.04750000       0.70780000
N        0.70300000      -0.64940000       1.19910000
C        0.93950000      -2.07720000      -0.78260000
O        1.27390000      -3.01790000      -1.45630000
C        0.64180000      -0.65200000      -1.25590000
H        1.04160000       1.88130000      -0.07940000
H       -0.58310000       1.92460000      -0.79390000
H       -0.38540000       1.86570000       0.96940000
H       -2.00580000      -0.06940000       0.88560000
H       -1.87930000      -1.24450000      -0.44780000
H       -0.81200000      -1.95270000       2.25700000
H        1.39370000      -2.73240000       1.30210000
H        0.01900000      -0.64310000      -2.15410000
H        1.59690000      -0.16740000      -1.49740000
