18
Properties=species:S:1:pos:R:3 gdb_98699=T pbc="F F F"
C        0.06820000       1.72480000       0.35460000
C       -0.04920000       0.56170000       1.33600000
C        0.91300000      -0.56770000       1.03270000
O        1.70180000      -0.53760000       0.11320000
C        0.91300000      -1.77830000       1.93460000
N        0.16660000      -1.74200000       3.19380000
C       -0.29220000      -2.66830000       2.14860000
C       -1.57950000      -2.45060000       1.54800000
C       -2.65990000      -2.32920000       1.03480000
H       -0.14450000       1.39850000      -0.66680000
H       -0.63460000       2.52040000       0.61710000
H        1.07900000       2.14080000       0.35670000
H        0.13310000       0.87700000       2.37140000
H       -1.06500000       0.14800000       1.35340000
H        1.86020000      -2.31180000       1.89020000
H        0.66150000      -2.24900000       3.92260000
H       -0.04080000      -3.72050000       2.27040000
H       -3.61440000      -2.21020000       0.58420000
