25
Properties=species:S:1:pos:R:3 gdb_102651=T pbc="F F F"
C        0.09600000       1.54590000       0.05310000
C        0.04400000       0.01990000      -0.03840000
C        0.70960000      -0.54020000      -1.30120000
C        0.69640000      -2.07630000      -1.31370000
C        1.60410000      -2.73320000      -2.35730000
O        0.00230000       0.01730000      -2.41380000
C        0.74390000       0.35890000      -3.54460000
C        0.53050000      -0.38230000      -4.84010000
C       -0.00960000       1.02420000      -4.65170000
H        1.13100000       1.90600000       0.08560000
H       -0.39020000       1.99890000      -0.81420000
H       -0.40780000       1.90390000       0.95610000
H        0.53220000      -0.42630000       0.83610000
H       -0.99960000      -0.31940000      -0.02240000
H        1.75480000      -0.18880000      -1.33430000
H        0.99540000      -2.42230000      -0.31600000
H       -0.34160000      -2.40080000      -1.45660000
H        1.57050000      -3.82390000      -2.26870000
H        1.30850000      -2.47140000      -3.37530000
H        2.64730000      -2.42420000      -2.22330000
H        1.74910000       0.71820000      -3.32600000
H        1.37410000      -0.53900000      -5.50430000
H       -0.19660000      -1.18640000      -4.82630000
H       -1.08020000       1.12270000      -4.51080000
H        0.45690000       1.84570000      -5.18380000
