15
Properties=species:S:1:pos:R:3 gdb_5768=T pbc="F F F"
C        0.41190000       1.53820000       0.22250000
N        1.24170000       0.40780000      -0.21220000
C       -0.19140000       0.18280000       0.09400000
C       -0.52630000      -0.65680000       1.25130000
C       -1.43770000      -1.65410000       1.42860000
C       -1.30820000      -2.08520000       2.78940000
C       -0.33000000      -1.31680000       3.33230000
O        0.15370000      -0.44020000       2.41130000
H        0.64790000       1.91360000       1.21330000
H        0.11970000       2.29590000      -0.50030000
H        1.37120000       0.43540000      -1.22050000
H       -0.86340000       0.02350000      -0.74530000
H       -2.11560000      -2.03750000       0.68200000
H       -1.86690000      -2.86180000       3.28770000
H        0.12430000      -1.26530000       4.30780000
