21
Properties=species:S:1:pos:R:3 gdb_107848=T pbc="F F F"
C       -0.01830000       1.32220000       0.05000000
O       -0.06010000      -0.08360000      -0.08320000
C        0.64930000      -0.57570000      -1.17020000
C        2.20190000      -0.47030000      -1.29490000
C        2.01460000      -1.72140000      -2.16590000
C        0.86690000      -1.46460000      -3.24400000
C        0.05710000      -2.61280000      -2.58070000
C        0.78110000      -2.14810000      -1.31010000
C        0.20550000      -0.22200000      -2.61330000
H        1.01200000       1.69040000       0.16240000
H       -0.47690000       1.83210000      -0.80940000
H       -0.58240000       1.57560000       0.95050000
H        2.63810000       0.43740000      -1.72410000
H        2.70300000      -0.72380000      -0.35580000
H        2.81980000      -2.40360000      -2.43120000
H        1.07370000      -1.44920000      -4.31400000
H       -1.03560000      -2.56930000      -2.63630000
H        0.40340000      -3.60440000      -2.88700000
H        0.85510000      -2.71450000      -0.38280000
H       -0.88080000      -0.21230000      -2.74180000
H        0.61460000       0.72970000      -2.96390000
