21
Properties=species:S:1:pos:R:3 gdb_101891=T pbc="F F F"
C       -0.17230000       1.52040000       0.00900000
C       -0.04300000       0.00160000      -0.10970000
C        0.85080000      -0.41730000      -1.27970000
O        2.17590000       0.05150000      -1.12090000
O        0.58160000      -0.58280000       1.03680000
C       -0.19370000      -0.61710000       2.21410000
C        0.55920000      -1.45990000       3.24500000
C       -0.07660000      -1.38590000       4.61450000
O       -0.43660000      -2.33620000       5.25890000
H        0.81970000       1.97400000       0.07220000
H       -0.67900000       1.92130000      -0.87460000
H       -0.75660000       1.81370000       0.88520000
H       -1.03890000      -0.45120000      -0.24730000
H        0.82180000      -1.51390000      -1.36910000
H        0.46930000       0.01030000      -2.21240000
H        2.45910000      -0.25430000      -0.25120000
H       -0.36410000       0.39610000       2.61120000
H       -1.18220000      -1.05840000       2.00910000
H        0.62610000      -2.50390000       2.93100000
H        1.57730000      -1.05370000       3.32600000
H       -0.19270000      -0.34970000       5.01190000
