18
Properties=species:S:1:pos:R:3 gdb_103320=T pbc="F F F"
C        0.56090000       0.69910000      -0.44880000
O       -0.54060000       0.54680000       0.43370000
C       -1.55010000      -0.39000000       0.23780000
C       -2.49770000      -0.19210000       1.41220000
C       -2.19990000      -0.59650000      -1.18570000
N       -0.92990000      -1.35080000      -1.57930000
C       -1.20950000      -1.87590000      -0.17120000
C       -2.66580000      -1.97720000      -0.67480000
O       -3.53710000      -2.77670000      -0.83260000
H        1.15960000       1.50570000      -0.01600000
H        1.16920000      -0.20800000      -0.51670000
H        0.24950000       0.98070000      -1.45940000
H       -2.87350000       0.83460000       1.41120000
H       -3.34860000      -0.87660000       1.37980000
H       -1.95740000      -0.34860000       2.34970000
H       -2.67450000       0.12400000      -1.84930000
H       -1.13070000      -2.06510000      -2.28410000
H       -0.56270000      -2.60430000       0.31420000
