19
Properties=species:S:1:pos:R:3 gdb_15162=T pbc="F F F"
C       -0.55860000       1.26720000      -0.95550000
C       -0.09710000      -0.12530000      -0.48860000
C        0.98090000      -0.67820000      -1.30340000
C        1.88590000      -1.10290000      -1.97810000
C        2.96120000      -1.64390000      -2.81670000
N        2.57820000      -2.56570000      -3.89570000
C        1.47780000      -3.49320000      -3.66200000
C        1.31670000      -2.33920000      -4.59080000
H        0.26820000       1.98180000      -0.92090000
H       -0.92790000       1.22950000      -1.98400000
H       -1.36290000       1.63830000      -0.31340000
H        0.23210000      -0.07160000       0.55720000
H       -0.94960000      -0.81640000      -0.49770000
H        3.50860000      -0.81550000      -3.28350000
H        3.68400000      -2.17440000      -2.18440000
H        1.62920000      -4.49860000      -4.04470000
H        0.94650000      -3.43080000      -2.71490000
H        0.68140000      -1.52620000      -4.24630000
H        1.34740000      -2.48230000      -5.66730000
