18
Properties=species:S:1:pos:R:3 gdb_74750=T pbc="F F F"
C       -0.00580000       1.48000000       0.05290000
C       -0.03980000      -0.00840000      -0.02220000
C       -0.05620000      -0.83270000      -1.07570000
C        0.00630000      -2.25020000      -0.49360000
O       -0.70960000      -2.08090000       0.73370000
C        0.02620000      -0.95050000       1.19850000
C        1.47960000      -1.50390000       1.19010000
N        1.54960000      -2.96970000       1.38970000
C        1.46510000      -2.40470000       0.02430000
H        0.90280000       1.83490000       0.55650000
H       -0.03640000       1.93370000      -0.94150000
H       -0.85290000       1.86890000       0.63190000
H       -0.03560000      -0.57710000      -2.12670000
H       -0.41250000      -3.06920000      -1.07630000
H       -0.37190000      -0.58850000       2.14620000
H        2.31980000      -0.86470000       1.43680000
H        2.52080000      -3.22020000       1.57260000
H        2.29290000      -2.48800000      -0.67050000
