17
Properties=species:S:1:pos:R:3 gdb_79947=T pbc="F F F"
C       -0.08850000       1.54860000       0.05440000
C        0.00320000       0.04750000      -0.07740000
C        0.71060000      -0.65560000      -1.17530000
C        1.75850000       0.10630000      -2.01030000
N        2.80080000       0.51590000      -1.02650000
C        2.43550000       0.05650000       0.10270000
N        1.25690000      -0.73150000       0.20610000
C        2.32040000      -0.71700000      -3.07660000
C        2.75880000      -1.41120000      -3.95320000
H        0.80060000       2.06370000      -0.31460000
H       -0.95310000       1.90890000      -0.51350000
H       -0.23790000       1.83420000       1.10060000
H       -0.86050000      -0.47510000       0.32850000
H        0.30760000      -1.57580000      -1.58380000
H        1.34680000       1.02130000      -2.45710000
H        3.01150000       0.22150000       1.00900000
H        3.15760000      -2.01710000      -4.72890000
