16
Properties=species:S:1:pos:R:3 gdb_26692=T pbc="F F F"
C        0.16340000       1.47580000       0.14750000
C       -0.02590000       0.00860000       0.03430000
C       -1.12930000      -0.76360000      -0.17170000
O       -2.41040000      -0.32980000      -0.33360000
C       -0.68330000      -2.12310000      -0.18510000
O       -1.51790000      -3.18080000      -0.36860000
C        0.66010000      -2.10510000       0.01250000
N        1.55120000      -3.17660000       0.08030000
O        1.07880000      -0.80000000       0.14920000
H        0.83900000       1.86200000      -0.62530000
H       -0.80340000       1.97190000       0.03370000
H        0.58130000       1.76080000       1.12060000
H       -2.96590000      -1.10630000      -0.46320000
H       -0.97460000      -3.97870000      -0.33690000
H        2.02460000      -3.24180000       0.97690000
H        2.26220000      -3.14650000      -0.64490000
