21
Properties=species:S:1:pos:R:3 gdb_83552=T pbc="F F F"
C       -0.09780000       1.71170000       0.00250000
C        0.02320000       0.19570000       0.01460000
C        1.12050000      -0.55510000      -0.80580000
C        2.43590000       0.03280000      -0.26160000
C        2.10180000       0.01830000       1.26830000
C        0.68170000      -0.57410000       1.20400000
C        0.90090000      -1.75430000       0.18780000
C       -0.24090000      -2.60740000      -0.06950000
C       -1.17080000      -3.34180000      -0.27930000
H        0.84640000       2.22150000       0.21350000
H       -0.44930000       2.06190000      -0.97450000
H       -0.82600000       2.04570000       0.75000000
H       -0.95100000      -0.24960000      -0.20230000
H        1.03420000      -0.70150000      -1.88270000
H        3.29800000      -0.59280000      -0.50960000
H        2.63570000       1.03640000      -0.64540000
H        2.78460000      -0.61500000       1.84180000
H        2.11950000       1.01420000       1.71840000
H        0.15490000      -0.73950000       2.14410000
H        1.78850000      -2.36860000       0.37590000
H       -1.99380000      -3.98630000      -0.46440000
