19
Properties=species:S:1:pos:R:3 gdb_106891=T pbc="F F F"
C        0.07860000       1.51490000       0.22860000
C       -0.00070000       0.02100000      -0.11850000
C       -1.41230000      -0.49720000      -0.08910000
C       -2.10840000      -0.96750000       1.13680000
C       -1.91270000      -1.97710000       0.00370000
C       -2.92810000      -1.68360000      -1.04750000
O       -3.71120000      -2.33510000      -1.68300000
C       -2.46560000      -0.19940000      -1.16300000
O       -3.36550000       0.84190000      -0.86280000
H        1.10930000       1.87650000       0.16680000
H       -0.53340000       2.10980000      -0.45640000
H       -0.28770000       1.70110000       1.24310000
H        0.42870000      -0.14960000      -1.11420000
H        0.61070000      -0.55630000       0.58580000
H       -1.47370000      -1.15780000       1.99700000
H       -3.10240000      -0.60950000       1.38160000
H       -1.35830000      -2.89550000       0.15370000
H       -1.99300000      -0.05990000      -2.14980000
H       -4.12440000       0.74840000      -1.44940000
