16
Properties=species:S:1:pos:R:3 gdb_84643=T pbc="F F F"
C        0.06510000       1.47070000      -0.00800000
N        0.07360000       0.01010000      -0.00360000
C        0.04060000      -0.65710000      -1.22590000
C       -0.02870000      -1.98780000      -1.36100000
C        0.04810000      -2.83580000      -0.16230000
O        1.24870000      -2.70300000       0.62690000
C        0.04380000      -2.15000000       1.15390000
C       -0.03430000      -0.65040000       1.21440000
O       -0.19750000      -0.06590000       2.26880000
H        0.96280000       1.85490000      -0.50190000
H       -0.81970000       1.85140000      -0.52900000
H        0.04320000       1.80640000       1.02690000
H        0.05060000       0.00500000      -2.08410000
H       -0.08880000      -2.43340000      -2.34490000
H       -0.32700000      -3.85520000      -0.21650000
H       -0.34150000      -2.63180000       2.04940000
