15
Properties=species:S:1:pos:R:3 gdb_16084=T pbc="F F F"
C       -0.01900000      -1.17640000       0.05430000
C        0.02040000       0.02500000       0.02440000
C        0.03810000       1.45710000      -0.05970000
C       -0.93440000       2.15000000      -1.02890000
C       -0.19580000       3.40120000      -1.45010000
C        1.03970000       3.44780000      -0.94380000
C        1.29710000       2.29350000      -0.03440000
N        0.43570000       2.19140000       1.15900000
H       -0.04460000      -2.23690000       0.09620000
H       -1.14520000       1.49860000      -1.88540000
H       -1.90120000       2.36250000      -0.55530000
H       -0.65020000       4.16070000      -2.07580000
H        1.77080000       4.22750000      -1.12100000
H        2.28650000       1.86310000       0.07520000
H       -0.12230000       3.04000000       1.24570000
