21
Properties=species:S:1:pos:R:3 gdb_87786=T pbc="F F F"
C        0.20910000       1.48720000      -0.38610000
C        0.16090000      -0.00170000      -0.12450000
C        1.43250000      -0.77940000       0.14430000
C        0.43180000      -0.55510000       1.24310000
C        0.68890000       0.21860000       2.55170000
C        0.16020000      -1.01530000       3.29450000
C        0.68590000      -1.66030000       4.49730000
O       -0.57360000      -0.96990000       4.50230000
C       -0.34100000      -1.65630000       1.99390000
H        0.98670000       1.96920000       0.21540000
H        0.42720000       1.69760000      -1.43890000
H       -0.74450000       1.96870000      -0.14120000
H       -0.59740000      -0.53420000      -0.69560000
H        1.52850000      -1.77830000      -0.27050000
H        2.36490000      -0.22270000       0.18560000
H        1.71860000       0.51870000       2.76530000
H        0.03170000       1.08500000       2.68300000
H        0.62420000      -2.74300000       4.60440000
H        1.48190000      -1.18140000       5.06690000
H       -1.42830000      -1.57370000       1.89040000
H       -0.04330000      -2.69220000       1.80750000
