22
Properties=species:S:1:pos:R:3 gdb_113042=T pbc="F F F"
C       -0.23110000       1.41890000      -0.09280000
C        0.13950000      -0.06770000      -0.09210000
C        0.77380000      -0.52830000       1.21340000
C       -0.10350000      -0.59750000       2.49900000
C        0.63700000      -1.90630000       2.88310000
C       -0.18570000      -3.03550000       3.51390000
C        0.59340000      -4.25850000       3.70440000
N        1.22860000      -5.21370000       3.84550000
C        1.09230000      -2.03820000       1.40540000
H        0.65390000       2.04680000       0.05910000
H       -0.69010000       1.71470000      -1.04100000
H       -0.94230000       1.65160000       0.70730000
H       -0.75730000      -0.67180000      -0.28680000
H        0.83130000      -0.27520000      -0.91930000
H        1.67220000       0.06740000       1.41580000
H       -0.06450000       0.23510000       3.20530000
H       -1.15310000      -0.79300000       2.24780000
H        1.49460000      -1.68600000       3.52590000
H       -0.58280000      -2.72140000       4.48690000
H       -1.05010000      -3.26950000       2.88080000
H        0.39980000      -2.66360000       0.83000000
H        2.11060000      -2.38280000       1.21410000
