25
Properties=species:S:1:pos:R:3 gdb_120639=T pbc="F F F"
C       -0.08950000       1.38080000       0.06590000
C       -0.29820000      -0.07270000      -0.32200000
O       -1.30190000      -0.62160000       0.51980000
C       -1.54540000      -1.97070000       0.27500000
C       -2.83890000      -2.52300000       0.78790000
C       -2.61280000      -2.40660000      -0.71370000
C       -3.38610000      -1.32900000      -1.44970000
C       -2.35630000      -3.69240000      -1.48570000
C       -3.62370000      -4.49180000      -1.81490000
H        0.68880000       1.83360000      -0.55570000
H       -1.01360000       1.95110000      -0.06580000
H        0.21300000       1.45820000       1.11410000
H       -0.59890000      -0.15720000      -1.37730000
H        0.63810000      -0.64300000      -0.20500000
H       -0.65430000      -2.59840000       0.34980000
H       -2.83710000      -3.50520000       1.24950000
H       -3.51410000      -1.80880000       1.24710000
H       -3.37860000      -0.39370000      -0.88520000
H       -2.94640000      -1.13260000      -2.43530000
H       -4.43030000      -1.61970000      -1.60710000
H       -1.82520000      -3.45070000      -2.41680000
H       -1.67640000      -4.32820000      -0.90410000
H       -3.37510000      -5.42550000      -2.32900000
H       -4.17530000      -4.74630000      -0.90350000
H       -4.29970000      -3.92750000      -2.46490000
