18
Properties=species:S:1:pos:R:3 gdb_50658=T pbc="F F F"
O       -0.08360000      -0.02900000       0.08900000
C       -0.01060000       1.18060000       0.09990000
N        1.14590000       1.90440000       0.04130000
C        1.16070000       3.35620000       0.05210000
C        1.85050000       3.89520000      -1.20540000
C        3.26900000       3.31440000      -1.33630000
C        3.31070000       1.80000000      -1.17710000
O        4.03810000       1.09370000      -1.83040000
C        2.42610000       1.21780000      -0.06990000
H       -0.89930000       1.83970000       0.15880000
H        0.12780000       3.71010000       0.11520000
H        1.68510000       3.71750000       0.95030000
H        1.25370000       3.62100000      -2.08280000
H        1.89330000       4.98870000      -1.16890000
H        3.74490000       3.57660000      -2.28390000
H        3.89860000       3.72530000      -0.53220000
H        2.98710000       1.29690000       0.87640000
H        2.23570000       0.16220000      -0.26190000
