16
Properties=species:S:1:pos:R:3 gdb_19376=T pbc="F F F"
O        0.14130000       1.35900000       0.19470000
C        0.07040000      -0.03600000      -0.06340000
C       -1.33450000      -0.53600000      -0.12700000
N       -2.13130000      -0.86190000       1.08880000
C       -1.92000000      -1.88640000       0.03640000
C       -2.90350000      -1.60760000      -1.14680000
N       -3.72250000      -0.41820000      -0.81330000
C       -2.33400000      -0.25110000      -1.30140000
H       -0.42730000       1.54270000       0.95040000
H        0.57240000      -0.18140000      -1.02710000
H        0.63050000      -0.62050000       0.68680000
H       -1.45420000      -1.07890000       1.82350000
H       -1.44070000      -2.83270000       0.25290000
H       -3.21380000      -2.32980000      -1.89000000
H       -4.32870000      -0.25550000      -1.61860000
H       -2.09820000       0.31960000      -2.18990000
