16
Properties=species:S:1:pos:R:3 gdb_127563=T pbc="F F F"
C        0.05500000       1.44740000      -0.03850000
N        0.02290000      -0.00640000       0.01750000
N       -0.06040000      -0.62410000      -1.18480000
C       -0.05490000      -1.91690000      -1.20780000
C        0.02940000      -2.80950000      -0.03360000
O        0.02990000      -4.03190000      -0.14590000
C        0.08870000      -2.06900000       1.20060000
C        0.08780000      -0.69990000       1.19930000
N        0.22140000       0.06640000       2.35070000
H        0.90980000       1.83550000       0.52240000
H        0.14650000       1.71950000      -1.08810000
H       -0.86730000       1.89010000       0.35920000
H       -0.11810000      -2.37360000      -2.19130000
H        0.12820000      -2.60830000       2.14000000
H        0.13240000      -0.48000000       3.19560000
H       -0.34270000       0.90380000       2.39360000
