19
Properties=species:S:1:pos:R:3 gdb_100246=T pbc="F F F"
C       -0.18090000       1.33340000      -0.32230000
N       -0.02180000      -0.09680000      -0.06140000
C        0.68990000      -0.46140000       1.16970000
C        0.17340000       0.17430000       2.46480000
C        0.61830000      -2.01440000       1.22520000
C        1.34680000      -2.61040000       2.34070000
N        1.92460000      -3.08220000       3.22300000
C        2.15950000      -0.08520000       0.91000000
O        2.81490000       0.64610000       1.59990000
H        0.80100000       1.81510000      -0.36160000
H       -0.64850000       1.45860000      -1.30280000
H       -0.78810000       1.87290000       0.41980000
H       -0.92990000      -0.54990000      -0.07570000
H       -0.88650000      -0.06130000       2.60820000
H        0.73200000      -0.19230000       3.32930000
H        0.29150000       1.25890000       2.43870000
H       -0.43410000      -2.31480000       1.29900000
H        1.00000000      -2.42200000       0.28280000
H        2.56440000      -0.54250000      -0.02090000
