19
Properties=species:S:1:pos:R:3 gdb_74943=T pbc="F F F"
C        0.01920000       1.51840000       0.02360000
C       -0.06650000       0.02730000      -0.02630000
C       -0.11210000      -0.77650000      -1.10260000
C        0.04450000      -2.19270000      -0.60960000
O        1.43980000      -2.26240000      -0.11380000
C        1.23470000      -1.89390000       1.23810000
C        0.23340000      -2.96160000       1.72550000
C       -0.69810000      -2.20190000       0.75550000
C       -0.01290000      -0.86240000       1.17610000
H        0.97320000       1.84480000       0.45740000
H       -0.06410000       1.95870000      -0.97380000
H       -0.77160000       1.94480000       0.65330000
H       -0.07000000      -0.47520000      -2.14220000
H       -0.12500000      -3.01120000      -1.30780000
H        2.17960000      -1.65510000       1.72360000
H        0.48960000      -4.00170000       1.51310000
H       -0.07310000      -2.83440000       2.76660000
H       -1.78250000      -2.30620000       0.73080000
H       -0.28340000      -0.44910000       2.14760000
