19
Properties=species:S:1:pos:R:3 gdb_53376=T pbc="F F F"
C       -0.38160000       1.02760000       0.73650000
C       -0.11660000      -0.35020000       0.35000000
C        0.10370000      -1.49250000       0.03930000
C        0.36610000      -2.87740000      -0.36370000
C        1.05440000      -3.72180000       0.73100000
C       -0.12270000      -4.24250000       1.56940000
O       -0.24470000      -3.42500000       2.72510000
C       -1.33050000      -4.10610000       0.60070000
O       -0.83610000      -3.60550000      -0.63500000
H        0.40480000       1.69900000       0.37400000
H       -1.33250000       1.37960000       0.32130000
H       -0.43350000       1.13370000       1.82570000
H        0.93780000      -2.88070000      -1.29740000
H        1.57830000      -4.55470000       0.25530000
H        1.75630000      -3.15940000       1.34710000
H        0.03320000      -5.28930000       1.86360000
H       -1.04240000      -3.68700000       3.19540000
H       -1.82980000      -5.05700000       0.39010000
H       -2.05820000      -3.41070000       1.04490000
