20
Properties=species:S:1:pos:R:3 gdb_80457=T pbc="F F F"
C       -0.07280000       1.56400000       0.08160000
C        0.05920000       0.06160000      -0.04270000
C        0.69410000      -0.64580000      -1.20950000
C        1.62610000       0.15130000      -2.11800000
N        2.69960000       0.58740000      -1.24280000
C        3.80440000       1.38760000      -1.71100000
C        2.64360000       0.07270000       0.03370000
O        3.49340000       0.22210000       0.88880000
C        1.35950000      -0.70340000       0.15110000
H        0.79990000       2.09180000      -0.30950000
H       -0.95450000       1.91870000      -0.46370000
H       -0.19070000       1.85390000       1.13060000
H       -0.79440000      -0.47690000       0.36320000
H        0.19890000      -1.50920000      -1.63650000
H        2.01670000      -0.47940000      -2.93000000
H        1.12640000       1.01140000      -2.58640000
H        3.46720000       2.36770000      -2.07090000
H        4.48750000       1.52590000      -0.87090000
H        4.33890000       0.88780000      -2.52980000
H        1.37730000      -1.57990000       0.78560000
