16
Properties=species:S:1:pos:R:3 gdb_61489=T pbc="F F F"
O       -0.01960000       1.46280000       0.01000000
C        0.04590000       0.02500000       0.00260000
C        0.70680000      -0.51280000      -1.28220000
C       -0.02690000      -0.03300000      -2.55350000
O        0.08210000       1.35640000      -2.76340000
C        0.52760000      -0.71730000      -3.73500000
N        0.95880000      -1.29060000      -4.63980000
C        0.71870000      -0.47880000       1.19700000
C        1.31410000      -0.86930000       2.16490000
H        0.83650000       1.79340000       0.30760000
H       -1.00430000      -0.29310000       0.01710000
H        1.75110000      -0.18700000      -1.32750000
H        0.70150000      -1.60670000      -1.24540000
H       -1.08500000      -0.34200000      -2.47900000
H       -0.08840000       1.76510000      -1.90030000
H        1.82370000      -1.22100000       3.02870000
