18
Properties=species:S:1:pos:R:3 gdb_72552=T pbc="F F F"
C        0.02740000       1.49330000       0.08000000
C       -0.00010000      -0.00090000      -0.07480000
C        0.69070000      -0.70820000      -1.24740000
C        0.31040000      -2.10100000      -0.69920000
C        0.91360000      -1.99440000       0.71570000
O        0.63890000      -0.63430000       1.07770000
N       -1.14390000      -1.93340000      -0.58600000
C       -1.40320000      -0.66160000      -0.10170000
O       -2.46090000      -0.21720000       0.27470000
H        1.05350000       1.84810000       0.20640000
H       -0.41090000       1.97320000      -0.79940000
H       -0.56260000       1.78520000       0.95230000
H        0.23750000      -0.50270000      -2.21840000
H        1.76690000      -0.52380000      -1.27410000
H        0.59300000      -2.97630000      -1.28210000
H        0.43360000      -2.67690000       1.42640000
H        1.99620000      -2.17630000       0.72250000
H       -1.76070000      -2.69610000      -0.34630000
