15
Properties=species:S:1:pos:R:3 gdb_128737=T pbc="F F F"
C       -0.01140000       1.37330000       0.00810000
O       -0.00100000      -0.05950000       0.00750000
C        0.59680000      -0.62350000      -1.03600000
N        1.15980000      -0.00490000      -2.03300000
O        1.63770000      -1.00160000      -2.86030000
N        1.35710000      -2.25440000      -2.35250000
C        0.72120000      -2.04100000      -1.23730000
O        0.25390000      -2.96480000      -0.40510000
C        0.48830000      -4.32190000      -0.80080000
H        1.01070000       1.76390000       0.00840000
H       -0.53730000       1.75310000      -0.87310000
H       -0.53230000       1.66540000       0.91940000
H        0.01370000      -4.52720000      -1.76510000
H        1.56170000      -4.51700000      -0.88360000
H        0.04700000      -4.93890000      -0.01860000
