15
Properties=species:S:1:pos:R:3 gdb_96755=T pbc="F F F"
C        0.07330000       1.50040000      -0.01900000
N        0.05670000       0.05310000      -0.08480000
C       -1.01890000      -0.59900000       0.00580000
O       -1.08170000      -1.94300000      -0.04980000
C        0.16080000      -2.62550000      -0.22160000
C       -0.14520000      -4.11210000      -0.25650000
O        0.71030000      -4.94370000      -0.39180000
C       -2.34780000      -0.03560000       0.18190000
N       -3.37650000       0.47220000       0.32150000
H        0.72140000       1.80670000       0.80870000
H        0.52460000       1.88840000      -0.93800000
H       -0.91380000       1.96030000       0.11380000
H        0.65120000      -2.31450000      -1.15100000
H        0.84840000      -2.39630000       0.60050000
H       -1.22170000      -4.36500000      -0.14700000
