23
Properties=species:S:1:pos:R:3 gdb_78534=T pbc="F F F"
C       -0.26740000       1.61260000      -0.00130000
C        0.08720000       0.12550000       0.04300000
C        1.35020000      -0.62440000      -0.34450000
C        2.71830000      -0.09600000       0.17610000
C        4.00280000      -0.68120000      -0.33390000
C        2.62820000       1.20510000       0.91670000
C        2.15940000      -0.06620000       1.59190000
C        0.81640000      -0.67610000       1.08860000
C        0.20440000      -1.82500000       1.83850000
H        0.26870000       2.14550000      -0.79270000
H       -1.33690000       1.72580000      -0.20500000
H       -0.06940000       2.11860000       0.94650000
H       -0.75110000      -0.47560000      -0.31220000
H        1.31280000      -1.41010000      -1.09190000
H        4.22040000      -0.33860000      -1.35390000
H        4.84650000      -0.39070000       0.30080000
H        3.96280000      -1.77690000      -0.35770000
H        3.58720000       1.54990000       1.29760000
H        1.97180000       2.01260000       0.62930000
H        2.63050000      -0.42260000       2.50070000
H       -0.25490000      -1.48990000       2.77770000
H       -0.57380000      -2.31570000       1.24480000
H        0.95710000      -2.58070000       2.09510000
