23
Properties=species:S:1:pos:R:3 gdb_106405=T pbc="F F F"
C       -0.66590000       1.81880000      -0.25740000
C       -0.50400000       0.29480000      -0.29410000
C       -1.79990000      -0.45540000      -0.10740000
C       -2.79690000      -0.36690000       1.10230000
C       -3.41050000      -1.42660000       0.14130000
C       -3.07440000      -0.44030000      -1.01340000
C       -1.96340000      -2.00880000      -0.01710000
C       -1.61260000      -2.91180000      -1.19470000
O       -1.34860000      -2.53370000       1.15070000
H        0.29670000       2.32050000      -0.39600000
H       -1.34050000       2.16610000      -1.04720000
H       -1.07970000       2.14860000       0.70110000
H       -0.05160000      -0.00430000      -1.24940000
H        0.19520000      -0.02350000       0.48940000
H       -2.43570000      -0.71990000       2.06560000
H       -3.35470000       0.56910000       1.18810000
H       -4.33900000      -1.98450000       0.27890000
H       -3.64260000       0.49280000      -1.00460000
H       -2.99350000      -0.82940000      -2.02920000
H       -2.01610000      -2.57410000      -2.14970000
H       -0.52510000      -2.99300000      -1.28800000
H       -2.00450000      -3.92250000      -1.01870000
H       -1.54960000      -3.47370000       1.19590000
