25
Properties=species:S:1:pos:R:3 gdb_115843=T pbc="F F F"
C       -0.76800000       1.22330000       0.54480000
C       -0.31360000      -0.23770000       0.45730000
C        0.32060000      -0.60600000      -0.89190000
C        1.63910000       0.14670000      -1.21750000
C        2.48740000      -0.81370000      -2.08990000
C        1.94720000      -2.21810000      -1.83700000
C        1.84980000      -2.74250000      -0.42190000
C        2.65410000      -2.25130000       0.76530000
C        0.64490000      -2.08760000      -1.07130000
H        0.07380000       1.91380000       0.42730000
H       -1.49780000       1.45720000      -0.23900000
H       -1.23800000       1.43670000       1.51000000
H        0.39960000      -0.45070000       1.26340000
H       -1.17510000      -0.89470000       0.63350000
H       -0.41180000      -0.35880000      -1.67520000
H        1.45030000       1.09420000      -1.72980000
H        2.16530000       0.40300000      -0.29270000
H        2.35520000      -0.57750000      -3.15190000
H        3.55920000      -0.71820000      -1.88090000
H        2.05950000      -2.94290000      -2.63720000
H        1.73950000      -3.82570000      -0.39830000
H        2.86200000      -1.18130000       0.73890000
H        2.13300000      -2.46290000       1.70590000
H        3.62020000      -2.76810000       0.80490000
H       -0.19580000      -2.73890000      -1.29300000
