17
Properties=species:S:1:pos:R:3 gdb_48599=T pbc="F F F"
O        0.03960000      -0.03490000      -0.04310000
C        0.04680000       1.16590000       0.02160000
C        1.27430000       2.01030000       0.01080000
C        1.79740000       2.98880000       1.11130000
C        2.85780000       2.85980000      -0.00890000
O        2.60980000       1.39270000      -0.03500000
C        1.75120000       3.03310000      -1.05390000
C        1.74350000       3.01330000      -2.53460000
C        1.13750000       4.18800000      -1.76490000
H       -0.89340000       1.76050000       0.09400000
H        1.28730000       3.94650000       1.23210000
H        2.05780000       2.50290000       2.05200000
H        3.89550000       3.19130000      -0.02660000
H        2.68040000       3.17690000      -3.05700000
H        1.06450000       2.33640000      -3.04240000
H        0.05700000       4.29070000      -1.76710000
H        1.67190000       5.13280000      -1.77410000
