15
Properties=species:S:1:pos:R:3 gdb_2435=T pbc="F F F"
O       -0.09510000       1.33680000      -0.06730000
C        0.04830000      -0.03520000      -0.03990000
C        0.94370000      -0.89700000      -0.92620000
C        0.05000000      -2.08120000      -0.45130000
C        0.37080000      -2.22560000       1.06390000
C       -0.29520000      -0.86200000       1.21850000
C       -1.07410000      -1.02990000      -0.07620000
H        0.57750000       1.72410000       0.50380000
H        0.78130000      -0.66520000      -1.98250000
H        2.01880000      -0.95660000      -0.71560000
H       -0.08410000      -2.95490000      -1.08450000
H       -0.22220000      -3.01740000       1.53120000
H        1.42420000      -2.34130000       1.34720000
H       -0.62770000      -0.35690000       2.11720000
H       -2.12400000      -0.93600000      -0.30980000
