17
Properties=species:S:1:pos:R:3 gdb_8395=T pbc="F F F"
N        0.09020000       1.12610000       0.50600000
C       -0.09630000       0.07690000      -0.34620000
O        0.69850000      -0.21700000      -1.21930000
C       -1.36660000      -0.70290000      -0.13190000
C       -2.47260000      -0.93980000      -1.20740000
C       -2.91990000      -1.74790000       0.04400000
C       -1.44710000      -2.23330000       0.16390000
C       -2.51820000      -0.51570000       0.90590000
H        0.92310000       1.68370000       0.40920000
H       -0.57450000       1.35750000       1.22200000
H       -3.07810000      -0.07020000      -1.47770000
H       -2.16890000      -1.51140000      -2.08650000
H       -3.82260000      -2.34920000       0.15190000
H       -1.07450000      -2.89180000      -0.62310000
H       -1.11000000      -2.55260000       1.15400000
H       -2.27320000      -0.71210000       1.95430000
H       -3.13850000       0.37930000       0.79730000
