14
Properties=species:S:1:pos:R:3 gdb_1234=T pbc="F F F"
C       -0.00910000       1.55370000       0.02000000
C       -0.02040000       0.01110000      -0.03040000
C       -1.45620000      -0.55250000       0.02290000
C        0.68460000      -0.47490000      -1.21070000
C        1.26030000      -0.87150000      -2.19730000
C        1.91060000      -1.31810000      -3.31120000
N        2.46350000      -1.69880000      -4.25960000
H        1.01190000       1.94260000       0.00560000
H       -0.54750000       1.97160000      -0.83530000
H       -0.49860000       1.89530000       0.93660000
H        0.52520000      -0.36260000       0.84740000
H       -2.04050000      -0.20130000      -0.83240000
H       -1.45330000      -1.64500000       0.01060000
H       -1.94950000      -0.21620000       0.93940000
