18
Properties=species:S:1:pos:R:3 gdb_59827=T pbc="F F F"
C        0.32280000       1.23980000       0.04940000
N       -0.17920000      -0.21350000      -0.08750000
H        0.03460000      -0.53500000      -1.07750000
C        0.53240000      -1.23370000       0.86260000
C       -1.77610000      -0.30920000       0.03910000
C       -2.12820000      -1.71340000      -0.12620000
C       -1.95880000      -2.92440000      -0.20380000
C       -0.97120000      -4.23060000      -0.11850000
O       -1.37430000      -5.40620000      -0.31650000
O        0.22850000      -3.73430000       0.15830000
H        1.40930000       1.25370000      -0.14160000
H       -0.20790000       1.87550000      -0.68040000
H        0.11190000       1.57490000       1.07860000
H        0.32790000      -2.41190000       0.50570000
H        1.60170000      -0.96060000       0.81280000
H        0.15020000      -1.00460000       1.87180000
H       -2.00090000       0.11000000       1.04300000
H       -2.16030000       0.38550000      -0.73930000
