16
Properties=species:S:1:pos:R:3 gdb_5783=T pbc="F F F"
C       -0.19980000       1.26540000      -0.35410000
C        1.22130000       1.05280000       0.03970000
N        0.26630000      -0.04570000       0.09140000
C       -0.15210000      -0.51830000       1.35230000
C        0.64490000      -0.77870000       2.44820000
N       -0.16330000      -1.31340000       3.42750000
C       -1.45310000      -1.38760000       2.97810000
C       -1.48280000      -0.90510000       1.69040000
H       -0.82350000       1.83690000       0.32980000
H       -0.47790000       1.33290000      -1.40200000
H        1.99790000       0.96840000      -0.71510000
H        1.53990000       1.48750000       0.98510000
H        1.70440000      -0.65340000       2.59660000
H        0.14920000      -1.59380000       4.33940000
H       -2.24060000      -1.77300000       3.60560000
H       -2.34900000      -0.83620000       1.05090000
