19
Properties=species:S:1:pos:R:3 gdb_84448=T pbc="F F F"
C       -0.25180000       1.52180000      -0.01740000
C        0.03220000       0.02720000      -0.02780000
C       -1.10070000      -0.91920000       0.45210000
O       -0.20850000      -1.57860000       1.38170000
C        0.85140000      -0.62190000       1.12070000
C        2.08500000      -1.33070000       0.50850000
O        2.20070000      -2.66620000       0.95840000
C        1.82660000      -1.19990000      -0.98240000
C        0.74210000      -0.47930000      -1.26230000
H        0.66860000       2.09790000      -0.15760000
H       -0.93830000       1.79490000      -0.82690000
H       -0.70900000       1.83310000       0.92750000
H       -1.91810000      -0.41410000       0.98270000
H       -1.51570000      -1.61420000      -0.28590000
H        1.06970000      -0.02010000       2.00840000
H        3.01920000      -0.83200000       0.79630000
H        1.28910000      -2.98020000       1.04970000
H        2.47520000      -1.67580000      -1.70970000
H        0.36710000      -0.26730000      -2.25940000
