13
Properties=species:S:1:pos:R:3 gdb_131401=T pbc="F F F"
O        0.12180000       1.33900000       0.12620000
C        0.08100000      -0.00500000       0.02870000
N        0.10950000      -0.68720000      -1.10340000
N        0.04750000      -1.95250000      -0.67990000
N       -0.01830000      -2.14200000       0.63420000
C        0.00160000      -0.90240000       1.11620000
N       -0.04680000      -0.52990000       2.45550000
C       -0.12410000      -1.34530000       3.56100000
O       -0.16420000      -2.54900000       3.55510000
H        0.17420000       1.70450000      -0.76530000
H        0.05140000      -2.72660000      -1.32120000
H       -0.02050000       0.46530000       2.61930000
H       -0.14540000      -0.73300000       4.48470000
