19
Properties=species:S:1:pos:R:3 gdb_83994=T pbc="F F F"
O       -0.07680000       1.39560000      -0.10080000
C       -0.00310000       0.01040000      -0.02970000
C       -0.35070000      -0.65840000       1.27080000
O       -0.72640000       0.27340000       2.24060000
C       -1.76790000      -0.10780000       3.13470000
C       -2.97140000      -0.79600000       2.46180000
C       -3.38340000      -0.14970000       1.16070000
C       -2.60550000      -0.18040000       0.07790000
C       -1.26940000      -0.83430000       0.06440000
H       -0.39400000       1.68780000       0.76540000
H        0.82250000      -0.38450000      -0.61390000
H        0.23120000      -1.50250000       1.63990000
H       -1.36480000      -0.76540000       3.91920000
H       -2.07720000       0.82830000       3.60950000
H       -2.72320000      -1.84820000       2.28180000
H       -3.79560000      -0.79470000       3.18250000
H       -4.34550000       0.35420000       1.12090000
H       -2.93670000       0.28520000      -0.84740000
H       -1.21360000      -1.79730000      -0.44300000
