21
Properties=species:S:1:pos:R:3 gdb_75604=T pbc="F F F"
C        0.04290000       1.54570000      -0.03660000
C        0.08310000       0.04280000       0.00030000
C        0.05850000      -0.71010000      -1.10420000
C       -0.01110000      -2.22100000      -1.12750000
O       -1.32550000      -2.73490000      -0.92180000
C       -1.78790000      -2.77450000       0.41670000
C       -2.21630000      -1.42470000       1.02350000
O       -1.28340000      -0.76670000       1.87050000
C        0.04110000      -0.59220000       1.37150000
H        0.92790000       1.97640000       0.44920000
H       -0.00770000       1.92900000      -1.05900000
H       -0.82790000       1.91850000       0.51670000
H        0.01750000      -0.21670000      -2.07350000
H        0.28290000      -2.58700000      -2.11520000
H        0.68010000      -2.66690000      -0.39690000
H       -2.67400000      -3.41680000       0.37470000
H       -1.05760000      -3.26780000       1.07860000
H       -2.54150000      -0.77650000       0.19780000
H       -3.07930000      -1.59330000       1.67610000
H        0.57510000      -1.55150000       1.36970000
H        0.53040000       0.05000000       2.11070000
