22
Properties=species:S:1:pos:R:3 gdb_10207=T pbc="F F F"
C       -0.04470000       1.58940000       0.01550000
C       -0.02180000       0.05880000       0.01030000
C        0.71610000      -0.52090000      -1.20290000
C        0.74690000      -2.06210000      -1.24430000
C        1.35430000      -2.58110000      -2.56610000
C        1.23740000      -4.09760000      -2.74780000
C        1.57180000      -2.58270000      -0.08420000
O        1.19270000      -3.33440000       0.77620000
H        0.97020000       2.00160000       0.04020000
H       -0.53800000       1.98170000      -0.88100000
H       -0.58180000       1.97610000       0.88690000
H        0.44350000      -0.30430000       0.93550000
H       -1.04960000      -0.32600000       0.02240000
H        0.24350000      -0.15920000      -2.12500000
H        1.74730000      -0.13910000      -1.22420000
H       -0.26900000      -2.45810000      -1.12680000
H        0.85350000      -2.06920000      -3.39640000
H        2.40930000      -2.27860000      -2.61780000
H        1.68380000      -4.41290000      -3.69570000
H        1.74070000      -4.64320000      -1.94320000
H        0.18880000      -4.41330000      -2.74940000
H        2.62420000      -2.20210000      -0.08800000
