17
Properties=species:S:1:pos:R:3 gdb_2845=T pbc="F F F"
C       -0.23130000       1.56980000       0.17200000
C        0.17410000       0.11630000      -0.10040000
C        0.82850000      -0.52270000       1.10980000
C        0.03520000      -1.23430000       2.15280000
C        0.99810000      -2.03530000       1.27920000
C        0.44160000      -2.99210000       0.29920000
O        0.98360000      -4.01840000      -0.03380000
H        0.63910000       2.17920000       0.43890000
H       -0.69600000       2.02100000      -0.70970000
H       -0.94530000       1.63150000       0.99980000
H       -0.71090000      -0.45560000      -0.40010000
H        0.86530000       0.08010000      -0.95180000
H        1.68900000       0.03240000       1.47720000
H        0.29130000      -1.12690000       3.20050000
H       -1.02470000      -1.38100000       1.96390000
H        1.92540000      -2.37260000       1.72950000
H       -0.55230000      -2.71210000      -0.12000000
