16
Properties=species:S:1:pos:R:3 gdb_54809=T pbc="F F F"
N       -0.02380000       1.31170000       0.07450000
C       -0.00650000      -0.07140000       0.08950000
O        0.95360000      -0.74020000       0.40410000
N       -1.22160000      -0.64140000      -0.29700000
C       -1.50860000      -2.07690000      -0.25760000
C       -2.07700000      -2.46610000       1.06490000
C       -2.96700000      -1.75590000       0.04480000
C       -2.58600000      -0.30390000       0.00700000
N       -3.23720000       0.75880000       0.18070000
H        0.89160000       1.71860000       0.19960000
H       -0.58540000       1.75650000      -0.63590000
H       -1.08160000      -2.74450000      -0.99200000
H       -2.30220000      -3.52060000       1.19300000
H       -1.75690000      -1.95350000       1.96610000
H       -3.87320000      -2.18900000      -0.35060000
H       -2.64880000       1.59050000       0.13660000
