20
Properties=species:S:1:pos:R:3 gdb_86035=T pbc="F F F"
C        0.03930000       1.49620000       0.18770000
N        0.14620000       0.05820000       0.09710000
C        1.11500000      -0.52800000      -0.84580000
C        1.34690000      -1.67830000       0.16970000
N        0.53690000      -2.83960000      -0.16500000
C        2.80140000      -2.11980000       0.38020000
C        2.93580000      -3.01360000       1.53050000
N        3.00350000      -3.71550000       2.44630000
C        0.74650000      -0.68580000       1.21970000
H        1.00740000       1.99080000       0.39760000
H       -0.35180000       1.90030000      -0.75200000
H       -0.65970000       1.76650000       0.98600000
H        0.71170000      -0.80870000      -1.82450000
H        2.01820000       0.09030000      -0.98830000
H        0.51820000      -3.49040000       0.61710000
H       -0.42230000      -2.54040000      -0.31740000
H        3.15070000      -2.64510000      -0.51520000
H        3.44720000      -1.25040000       0.53600000
H        1.52520000      -0.11480000       1.75460000
H        0.03600000      -1.08980000       1.94880000
