17
Properties=species:S:1:pos:R:3 gdb_63528=T pbc="F F F"
C        0.11340000       1.57290000      -0.25930000
C        0.00610000       0.07840000      -0.05240000
O       -1.18680000      -0.49560000      -0.49850000
C        1.26510000      -0.79220000      -0.10930000
C        0.55900000      -0.54480000       1.18540000
C        1.01980000       0.05510000       2.50480000
C        0.24850000      -1.12990000       3.09660000
O       -0.00120000      -1.57970000       4.16630000
O       -0.13350000      -1.61740000       1.86790000
H        1.03040000       1.97630000       0.18000000
H        0.12730000       1.81170000      -1.32950000
H       -0.74400000       2.08280000       0.19090000
H       -1.18340000      -0.48110000      -1.46220000
H        1.13750000      -1.78300000      -0.53240000
H        2.23200000      -0.32900000      -0.28060000
H        2.09310000       0.03240000       2.70270000
H        0.61230000       1.03300000       2.76780000
