16
Properties=species:S:1:pos:R:3 gdb_52040=T pbc="F F F"
O       -0.52670000       0.19700000       0.42370000
C       -0.17560000       1.13390000      -0.24200000
C        1.12540000       1.89390000      -0.02720000
N        1.61380000       2.44530000      -1.27960000
C        2.65260000       3.43610000      -1.18000000
C        3.66770000       3.29060000      -2.31610000
O        3.66040000       2.36210000      -3.07960000
C        2.10810000       4.87230000      -1.21560000
O        2.78700000       5.84040000      -1.00330000
H       -0.79320000       1.53810000      -1.07500000
H        0.88100000       2.72400000       0.65260000
H        1.83290000       1.24180000       0.50920000
H        1.91640000       1.72070000      -1.92430000
H        3.26610000       3.37010000      -0.26160000
H        4.40950000       4.10980000      -2.36910000
H        1.03130000       4.92480000      -1.48500000
