14
Properties=species:S:1:pos:R:3 gdb_11162=T pbc="F F F"
N       -0.24670000       1.02970000       0.63370000
C       -0.12310000      -0.12910000       0.15870000
C       -1.17090000      -0.86530000      -0.65130000
C       -0.69270000      -2.33460000      -0.60720000
C        0.83490000      -2.14510000      -0.42360000
O        0.98830000      -0.92150000       0.29420000
C       -1.28670000      -3.07990000       0.50320000
N       -1.75410000      -3.67610000       1.37570000
H        0.60240000       1.31680000       1.12290000
H       -2.16980000      -0.70620000      -0.24840000
H       -1.15680000      -0.49920000      -1.68270000
H       -0.91190000      -2.87160000      -1.53330000
H        1.30660000      -2.94400000       0.14990000
H        1.32390000      -2.06430000      -1.40200000
