15
Properties=species:S:1:pos:R:3 gdb_4941=T pbc="F F F"
O        0.35690000       0.98440000       0.77250000
C        0.02170000       0.05890000      -0.25290000
C       -1.39710000      -0.42180000      -0.16230000
C       -2.16460000      -0.43760000       0.97610000
N       -3.40190000      -0.96260000       0.64260000
C       -3.41590000      -1.27030000      -0.68480000
O       -4.56100000      -1.79070000      -1.19570000
C       -2.19580000      -0.95110000      -1.23000000
H       -0.32260000       1.66740000       0.75900000
H        0.20640000       0.48290000      -1.25400000
H        0.73090000      -0.76970000      -0.13190000
H       -1.93430000      -0.14140000       1.98500000
H       -4.18750000      -1.08320000       1.25750000
H       -4.42240000      -1.96290000      -2.13160000
H       -1.90310000      -1.07400000      -2.26190000
