18
Properties=species:S:1:pos:R:3 gdb_102880=T pbc="F F F"
C        0.05790000       1.29990000       0.21570000
O       -0.04370000      -0.11330000       0.03360000
C       -1.29700000      -0.61730000       0.02860000
N       -1.26790000      -1.99790000      -0.06950000
C       -0.06300000      -2.72040000      -0.44210000
C       -0.19970000      -4.14360000      -0.11850000
N       -0.31770000      -5.26850000       0.11440000
N       -2.32130000       0.12390000       0.13400000
C       -3.62880000      -0.50170000       0.14140000
H        1.12650000       1.51830000       0.20480000
H       -0.45350000       1.83110000      -0.59060000
H       -0.38840000       1.60010000       1.16690000
H       -2.13730000      -2.42090000      -0.35290000
H        0.18640000      -2.63240000      -1.51050000
H        0.78120000      -2.30720000       0.11400000
H       -4.39580000       0.26730000       0.26160000
H       -3.85430000      -1.03320000      -0.79900000
H       -3.75020000      -1.22210000       0.96520000
