21
Properties=species:S:1:pos:R:3 gdb_12107=T pbc="F F F"
C        0.06560000       1.57350000       0.14990000
C       -0.03290000       0.06620000       0.01370000
C       -1.40860000      -0.44900000      -0.36920000
N       -1.86860000       0.11800000      -1.63430000
C       -1.59110000      -0.64860000      -2.84240000
C       -2.97250000      -0.56790000      -2.29140000
C        1.17450000      -0.68820000      -0.49370000
C        0.77490000      -0.78880000       0.95960000
H        1.08230000       1.88040000       0.41460000
H       -0.21360000       2.06530000      -0.78590000
H       -0.60900000       1.94110000       0.93270000
H       -1.39730000      -1.55470000      -0.39510000
H       -2.13490000      -0.15460000       0.40040000
H       -1.30820000      -0.07260000      -3.71900000
H       -1.07250000      -1.60040000      -2.73730000
H       -3.36990000      -1.46600000      -1.81960000
H       -3.72010000       0.06960000      -2.75530000
H        1.01770000      -1.55780000      -1.12310000
H        2.06370000      -0.11900000      -0.74300000
H        1.39080000      -0.28500000       1.69720000
H        0.34740000      -1.72450000       1.30630000
