17
Properties=species:S:1:pos:R:3 gdb_109291=T pbc="F F F"
O        0.08410000       1.42170000      -0.06630000
C        0.00980000       0.01390000       0.01990000
C       -1.42460000      -0.43390000       0.02710000
C       -2.44950000       0.40650000      -0.03740000
C       -3.87110000      -0.04020000      -0.03000000
O       -4.08990000      -1.45370000       0.06370000
C       -3.10470000      -2.37280000       0.13270000
O       -3.39650000      -3.53550000       0.20870000
C       -1.65350000      -1.91490000       0.11200000
H        1.01080000       1.67580000      -0.06650000
H        0.52790000      -0.47090000      -0.82720000
H        0.50260000      -0.36170000       0.93470000
H       -2.28310000       1.47600000      -0.09990000
H       -4.41220000       0.41190000       0.81240000
H       -4.38420000       0.29260000      -0.94260000
H       -1.17750000      -2.44040000      -0.72690000
H       -1.18460000      -2.34070000       1.00920000
