16
Properties=species:S:1:pos:R:3 gdb_20108=T pbc="F F F"
C        0.02640000       1.51220000       0.02880000
O        1.17030000       0.67980000      -0.16940000
C       -0.09860000       0.04750000       0.02660000
C       -0.24860000      -0.72240000       1.28120000
C        0.32800000      -0.42100000       2.67410000
C        0.33290000      -1.96660000       2.95050000
C       -0.24260000      -2.17570000       1.54350000
O       -1.47390000      -1.44360000       1.47150000
H        0.00050000       2.05130000       0.97440000
H       -0.29920000       2.07850000      -0.84220000
H       -0.51540000      -0.43960000      -0.85480000
H        1.33350000       0.00100000       2.62820000
H       -0.30820000       0.19360000       3.31500000
H        1.34220000      -2.36760000       3.06580000
H       -0.30070000      -2.32420000       3.76510000
H       -0.13140000      -3.01820000       0.87000000
