19
Properties=species:S:1:pos:R:3 gdb_58004=T pbc="F F F"
C       -0.25410000       1.15050000      -0.43440000
C        0.03980000      -0.22190000       0.20680000
C        0.84240000      -0.09210000       1.50330000
C       -1.27110000      -0.94470000       0.45540000
O       -1.82930000      -1.06820000       1.51700000
O       -1.78490000      -1.43810000      -0.70100000
C       -3.06640000      -2.05640000      -0.57180000
C       -3.00830000      -3.35760000       0.21850000
O       -3.99150000      -3.94680000       0.57420000
H        0.68410000       1.66780000      -0.65420000
H       -0.81370000       1.04130000      -1.36670000
H       -0.83540000       1.78000000       0.24730000
H        0.59720000      -0.82040000      -0.52290000
H        1.07470000      -1.07190000       1.92940000
H        1.78350000       0.43190000       1.31290000
H        0.27690000       0.46810000       2.25240000
H       -3.78880000      -1.38520000      -0.10000000
H       -3.38940000      -2.27540000      -1.59380000
H       -1.97970000      -3.73900000       0.40340000
