18
Properties=species:S:1:pos:R:3 gdb_95595=T pbc="F F F"
C       -0.12410000       1.55430000       0.07320000
C        0.02370000       0.02110000      -0.01650000
C        0.78140000      -0.45130000      -1.26680000
C        2.23860000       0.00460000      -1.25370000
N        2.87950000      -0.35290000       0.00490000
C        2.28490000      -0.54800000       1.22090000
O        2.91200000      -0.77830000       2.23220000
C        0.73020000      -0.47770000       1.23900000
O        0.14400000      -0.78430000       2.24340000
H        0.84280000       2.05940000       0.16750000
H       -0.62140000       1.94200000      -0.82140000
H       -0.72430000       1.82340000       0.94600000
H       -0.97860000      -0.41830000      -0.00290000
H        0.75070000      -1.54610000      -1.31620000
H        0.29340000      -0.07370000      -2.17150000
H        2.78800000      -0.47450000      -2.07080000
H        2.29970000       1.08900000      -1.42420000
H        3.88990000      -0.36210000       0.04250000
