12
Properties=species:S:1:pos:R:3 gdb_21584=T pbc="F F F"
N       -0.04010000       1.37520000      -0.08270000
C       -0.02370000      -0.00710000      -0.03480000
C       -1.19890000      -0.78130000      -0.07310000
N       -1.13580000      -2.09720000      -0.08680000
C        0.10310000      -2.61190000      -0.07440000
O        0.21990000      -3.94920000      -0.09870000
N        1.24140000      -1.93120000      -0.03490000
N        1.16830000      -0.60560000      -0.00530000
H        0.85090000       1.78610000       0.16060000
H       -0.82230000       1.82700000       0.36660000
H       -2.18480000      -0.32030000      -0.09020000
H       -0.67860000      -4.30290000      -0.12480000
