18
Properties=species:S:1:pos:R:3 gdb_61964=T pbc="F F F"
C        0.02880000       1.59940000       0.06100000
C       -0.00160000       0.07610000       0.00820000
C        0.69640000      -0.48490000      -1.22890000
C        0.67260000      -2.02490000      -1.27540000
C        1.30030000      -2.54890000      -2.48540000
N        1.79670000      -2.94450000      -3.45090000
O        0.68430000      -0.46060000       1.16120000
C       -0.04630000      -0.75580000       2.25480000
O        0.44070000      -1.15440000       3.26850000
H        1.06140000       1.95900000       0.08840000
H       -0.46580000       2.02280000      -0.81820000
H       -0.48560000       1.96730000       0.95330000
H       -1.04290000      -0.27730000       0.03080000
H        0.20600000      -0.08000000      -2.11970000
H        1.73380000      -0.13580000      -1.24510000
H        1.19120000      -2.43040000      -0.40130000
H       -0.35960000      -2.39370000      -1.23440000
H       -1.13260000      -0.59930000       2.10190000
