19
Properties=species:S:1:pos:R:3 gdb_96848=T pbc="F F F"
C       -0.05960000       1.44420000      -0.05460000
N        0.01830000      -0.00510000      -0.05260000
C       -1.04410000      -0.68920000      -0.02830000
O       -2.32840000      -0.15260000      -0.00540000
C       -3.29260000      -1.20300000       0.04130000
C       -4.26810000      -1.05830000      -1.12640000
C       -2.46480000      -2.47150000       0.02390000
N       -3.07160000      -3.69860000       0.13370000
C       -1.16290000      -2.13950000      -0.02160000
H        0.66800000       1.84310000       0.66160000
H        0.23000000       1.82910000      -1.04150000
H       -1.04970000       1.84670000       0.19020000
H       -3.84420000      -1.12620000       0.99040000
H       -3.74070000      -1.15890000      -2.07900000
H       -5.05970000      -1.81440000      -1.07720000
H       -4.74380000      -0.07510000      -1.09160000
H       -4.00930000      -3.77400000      -0.23030000
H       -2.50110000      -4.50130000      -0.08560000
H       -0.30440000      -2.79330000      -0.04160000
