18
Properties=species:S:1:pos:R:3 gdb_9385=T pbc="F F F"
C       -0.17680000       1.48810000       0.19070000
C       -0.03850000      -0.02500000       0.06020000
N        0.80100000      -0.56690000       1.13210000
C        1.00050000      -2.01060000       1.08240000
C        1.51140000      -2.46150000       2.47050000
O        0.68520000      -1.94690000       3.48590000
C        1.54220000      -3.92960000       2.55330000
N        1.58850000      -5.08330000       2.57960000
H        0.79540000       1.98450000       0.09120000
H       -0.83060000       1.88320000      -0.59170000
H       -0.59610000       1.75690000       1.16440000
H       -1.02370000      -0.49950000       0.14130000
H        0.35150000      -0.28010000      -0.94020000
H        1.70150000      -0.09490000       1.12160000
H        0.02910000      -2.48240000       0.90350000
H        1.68920000      -2.35150000       0.29420000
H        2.55200000      -2.11120000       2.59320000
H        0.39070000      -1.09350000       3.12260000
