20
Properties=species:S:1:pos:R:3 gdb_109902=T pbc="F F F"
O        0.81560000      -0.48720000      -1.05670000
C        0.07490000       0.08150000       0.01190000
C       -1.34140000      -0.45700000       0.04800000
C       -2.40490000       0.15380000       1.01240000
O       -2.13470000       1.44500000       1.52540000
C       -3.34600000       0.20750000      -0.21920000
C       -3.48980000       1.56560000      -0.92550000
C       -2.20220000       1.19670000      -1.70490000
N       -2.21940000      -0.20940000      -1.15460000
H        0.23380000      -0.51520000      -1.82430000
H        0.59400000      -0.19920000       0.93690000
H        0.07830000       1.17940000      -0.03470000
H       -1.28740000      -1.54470000       0.17960000
H       -2.73270000      -0.52150000       1.81360000
H       -1.54090000       1.35410000       2.27690000
H       -4.22070000      -0.44590000      -0.16430000
H       -4.38120000       1.62600000      -1.55280000
H       -3.43830000       2.44260000      -0.28110000
H       -2.29030000       1.19670000      -2.79530000
H       -1.32570000       1.79090000      -1.43270000
