22
Properties=species:S:1:pos:R:3 gdb_94621=T pbc="F F F"
O        0.35780000       0.96360000      -0.70100000
C        0.05000000      -0.16300000       0.08970000
C       -0.21540000       0.02260000       1.60740000
C       -1.43260000      -0.93160000       1.45670000
C       -1.39750000      -0.69750000      -0.08550000
C       -2.38300000       0.34140000      -0.61830000
N       -3.71420000      -0.24090000      -0.77440000
C       -4.67080000      -0.02380000       0.30630000
C       -4.80780000       0.69790000      -0.98800000
H        1.25620000       1.24140000      -0.49730000
H        0.77690000      -0.97070000      -0.08060000
H        0.57750000      -0.25720000       2.30600000
H       -0.52540000       1.05070000       1.81520000
H       -1.18760000      -1.96340000       1.72130000
H       -2.34870000      -0.65320000       1.98040000
H       -1.49170000      -1.59510000      -0.70170000
H       -2.39750000       1.23790000       0.02740000
H       -2.04440000       0.67280000      -1.60530000
H       -5.31780000      -0.86280000       0.54700000
H       -4.34950000       0.56470000       1.16480000
H       -4.57640000       1.76240000      -0.98790000
H       -5.55620000       0.39630000      -1.71570000
