18
Properties=species:S:1:pos:R:3 gdb_102271=T pbc="F F F"
C       -0.33840000       1.48550000       0.16920000
C       -0.07370000       0.02250000      -0.03620000
N        1.05620000      -0.41550000      -0.40110000
O       -1.21290000      -0.69540000       0.23520000
C       -1.17740000      -2.11310000       0.09740000
C       -2.49270000      -2.62440000       0.69770000
O       -3.61400000      -2.09320000       0.02560000
C       -1.07680000      -2.52030000      -1.37430000
O       -0.71880000      -3.61410000      -1.71960000
H        0.56690000       2.05230000      -0.04140000
H       -1.14550000       1.82060000      -0.48990000
H       -0.66080000       1.67060000       1.19850000
H        1.10120000      -1.42830000      -0.49890000
H       -0.33400000      -2.54910000       0.64800000
H       -2.52940000      -3.71120000       0.58270000
H       -2.50210000      -2.38630000       1.77140000
H       -3.56380000      -1.13480000       0.11340000
H       -1.38830000      -1.73460000      -2.09490000
