15
Properties=species:S:1:pos:R:3 gdb_125574=T pbc="F F F"
C       -0.28460000       1.48860000       0.02500000
C       -0.01460000       0.01910000      -0.05210000
N        0.03510000      -0.57370000      -1.18970000
N        0.28800000      -1.92000000      -1.15990000
C        0.49900000      -2.73810000      -0.06110000
N        0.73310000      -3.99170000      -0.07220000
C        0.43440000      -2.01840000       1.26610000
O        0.58760000      -2.54240000       2.34020000
N        0.17630000      -0.65880000       1.14200000
H        0.54330000       2.01680000       0.51210000
H       -0.41050000       1.88270000      -0.98300000
H       -1.19380000       1.69300000       0.60230000
H        0.31710000      -2.33670000      -2.07770000
H        0.75230000      -4.36290000      -1.02480000
H        0.12780000      -0.15670000       2.01830000
