21
Properties=species:S:1:pos:R:3 gdb_45582=T pbc="F F F"
O       -0.11190000      -0.05810000      -0.03430000
C       -0.10930000       1.13850000       0.00580000
C       -1.19970000       2.21310000       0.18180000
C       -0.07080000       3.14030000       0.73690000
C        0.00620000       3.13720000       2.27310000
C        1.44910000       3.17680000       2.79500000
C        2.22760000       1.95000000       2.29950000
C        2.33730000       1.93610000       0.76710000
C        1.00010000       2.20020000       0.07820000
H       -1.58580000       2.54120000      -0.78890000
H       -2.04080000       1.96940000       0.83530000
H       -0.07160000       4.16180000       0.35110000
H       -0.58230000       3.97050000       2.67250000
H       -0.46410000       2.22150000       2.65820000
H        1.94940000       4.09570000       2.45810000
H        1.44520000       3.20640000       3.89000000
H        3.23160000       1.92700000       2.73640000
H        1.71570000       1.04140000       2.64330000
H        3.05260000       2.70860000       0.45720000
H        2.73930000       0.97890000       0.41600000
H        1.16710000       2.52960000      -0.95660000
