19
Properties=species:S:1:pos:R:3 gdb_51008=T pbc="F F F"
O       -0.33490000       0.17390000       0.37010000
C       -0.04420000       1.30990000       0.04700000
N        1.20390000       1.81070000      -0.11830000
C        2.45610000       1.10240000      -0.05250000
C        2.61770000      -0.16570000       0.74580000
C        2.64250000      -0.21920000      -0.76660000
C        3.61100000       2.06920000      -0.04030000
N        3.36320000       3.40170000      -0.61080000
C        3.65020000       3.27140000       0.83040000
H       -0.81060000       2.08750000      -0.14710000
H        1.29810000       2.73590000      -0.52110000
H        3.55220000      -0.28750000       1.28490000
H        1.73850000      -0.56330000       1.23140000
H        1.77120000      -0.64500000      -1.24870000
H        3.58440000      -0.39640000      -1.27570000
H        4.56720000       1.59800000      -0.25650000
H        4.16950000       3.74520000      -1.12260000
H        2.80890000       3.49460000       1.47970000
H        4.61550000       3.60340000       1.20200000
