17
Properties=species:S:1:pos:R:3 gdb_127224=T pbc="F F F"
C        0.01280000       1.45970000       0.03590000
N       -0.02330000       0.00760000       0.01190000
C       -1.20510000      -0.69700000       0.02490000
C       -1.20670000      -2.04430000       0.00190000
C       -2.44870000      -2.87420000       0.01410000
C        0.09390000      -2.70090000      -0.03680000
N        0.20470000      -3.97710000      -0.06110000
N        1.25120000      -1.86620000      -0.04700000
N        1.18230000      -0.60590000      -0.02400000
H        1.06070000       1.75710000       0.01910000
H       -0.49830000       1.87600000      -0.83840000
H       -0.46120000       1.84560000       0.94430000
H       -2.10790000      -0.09690000       0.05430000
H       -2.48020000      -3.51970000      -0.87000000
H       -2.44340000      -3.54910000       0.87650000
H       -3.35000000      -2.25560000       0.04350000
H        1.19790000      -4.21950000      -0.08630000
