12
Properties=species:S:1:pos:R:3 gdb_5033=T pbc="F F F"
O        0.02140000       1.35390000       0.00740000
C       -0.05350000       0.01880000       0.00110000
C       -1.20710000      -0.68500000       0.00470000
N       -1.11020000      -2.06800000      -0.00290000
C        0.09690000      -2.67660000      -0.01360000
N        1.24150000      -2.06570000      -0.01760000
C        1.24550000      -0.68120000      -0.01060000
O        2.26250000       0.00670000      -0.01350000
H        0.98990000       1.51450000       0.00220000
H       -2.19680000      -0.25080000       0.01310000
H       -1.94900000      -2.62600000      -0.00060000
H        0.06730000      -3.76400000      -0.01890000
