19
Properties=species:S:1:pos:R:3 gdb_47896=T pbc="F F F"
O       -0.05610000       0.88170000      -1.52480000
C       -0.03120000       1.42530000      -0.43540000
C       -1.40970000       1.78070000       0.15690000
O       -1.49680000       2.35950000       1.43140000
C       -0.89640000       3.64150000       1.57120000
C        0.11440000       3.58260000       2.71820000
C        0.93380000       2.27550000       2.66180000
C        1.70850000       2.09330000       1.38510000
C        1.29580000       1.74660000       0.15560000
H       -1.89580000       2.40710000      -0.60820000
H       -1.97620000       0.84520000       0.20060000
H       -0.39850000       3.93590000       0.63970000
H       -1.67800000       4.38520000       1.77530000
H        0.76380000       4.46510000       2.67890000
H       -0.41020000       3.61080000       3.67940000
H        1.63050000       2.25540000       3.50480000
H        0.23420000       1.44750000       2.79440000
H        2.78110000       2.26070000       1.47680000
H        2.05900000       1.62680000      -0.61040000
