19
Properties=species:S:1:pos:R:3 gdb_98602=T pbc="F F F"
C        1.52270000       1.71910000       0.02220000
C        1.55100000       0.20180000      -0.13830000
C        0.81670000      -0.29580000      -1.37620000
O        0.18700000       0.45240000      -2.09310000
C        0.92730000      -1.78400000      -1.63810000
C        0.17430000      -2.49320000      -2.79380000
C        1.10150000      -1.83650000      -3.84420000
C        1.95240000      -2.37380000      -2.67240000
O        1.15010000      -3.61160000      -2.68450000
H        2.00310000       2.21140000      -0.82750000
H        0.49410000       2.08460000       0.06840000
H        2.04180000       2.02170000       0.93570000
H        2.58020000      -0.18250000      -0.17720000
H        1.10030000      -0.29710000       0.73170000
H        0.93590000      -2.36310000      -0.71110000
H       -0.88260000      -2.74940000      -2.85750000
H        1.20910000      -2.40420000      -4.76870000
H        1.02100000      -0.76100000      -3.99200000
H        3.03370000      -2.47270000      -2.57050000
