22
Properties=species:S:1:pos:R:3 gdb_57456=T pbc="F F F"
C       -1.52420000      -0.41990000      -0.10620000
C       -0.04630000      -0.01450000       0.03570000
C        0.08180000       1.50780000       0.15800000
O        0.48300000      -0.54970000       1.24630000
C        0.75480000      -0.51460000      -1.18310000
C        2.32570000      -0.58540000      -1.07630000
C        2.23830000      -2.08250000      -1.39020000
N        1.39810000      -2.69620000      -0.32840000
C        0.75690000      -2.02440000      -1.49380000
H       -1.97550000      -0.00530000      -1.01500000
H       -1.62380000      -1.50960000      -0.14000000
H       -2.09030000      -0.05890000       0.75700000
H       -0.39960000       1.84290000       1.08130000
H        1.13400000       1.80400000       0.20220000
H       -0.39140000       2.01840000      -0.68690000
H        0.76430000      -1.46060000       1.05460000
H        0.45670000       0.04870000      -2.07210000
H        2.82470000      -0.01260000      -1.86020000
H        2.74970000      -0.33680000      -0.10200000
H        2.94790000      -2.69500000      -1.93200000
H        1.36710000      -3.69990000      -0.49750000
H        0.07750000      -2.57770000      -2.13050000
