18
Properties=species:S:1:pos:R:3 gdb_38479=T pbc="F F F"
C        0.02360000       1.50700000      -0.15410000
C        1.33750000       0.81840000       0.02970000
O        1.87820000       0.72360000       1.34500000
C        0.91160000      -0.00110000       2.06310000
C        0.79310000      -1.14770000       3.09900000
N       -0.64710000      -1.00070000       2.54700000
C       -0.42140000       0.50070000       2.69510000
C        0.10120000      -0.85570000       1.13900000
C        0.02640000      -0.01730000      -0.11290000
H       -0.37030000       2.11390000       0.64880000
H       -0.16720000       1.91820000      -1.14060000
H        2.11300000       0.84920000      -0.72570000
H        1.26650000      -2.10290000       2.86290000
H        0.85520000      -0.90380000       4.16120000
H       -0.39390000       0.83310000       3.73570000
H       -1.12250000       1.09080000       2.11090000
H        0.50320000      -1.83730000       0.87320000
H       -0.18310000      -0.52020000      -1.04980000
