17
Properties=species:S:1:pos:R:3 gdb_125111=T pbc="F F F"
C        0.05250000       1.48020000       0.04160000
C        0.03220000      -0.00840000      -0.03300000
C        0.12360000      -0.86470000      -1.11270000
O        0.26200000      -0.50890000      -2.41840000
C        0.04690000      -2.17340000      -0.57790000
C        0.09040000      -3.43460000      -1.37940000
O        0.99570000      -3.30110000      -2.48950000
N       -0.07200000      -2.14380000       0.74890000
N       -0.09320000      -0.83420000       1.05040000
H        0.80710000       1.84620000       0.74770000
H        0.29120000       1.88390000      -0.94490000
H       -0.91580000       1.89530000       0.34630000
H        0.51740000      -1.31790000      -2.88860000
H        0.35010000      -4.28860000      -0.74210000
H       -0.87890000      -3.64950000      -1.84310000
H        1.88070000      -3.19280000      -2.12280000
H       -0.17270000      -0.56010000       2.01460000
