14
Properties=species:S:1:pos:R:3 gdb_30632=T pbc="F F F"
O        0.03390000       1.37270000       0.00920000
C       -0.01820000      -0.02900000       0.00260000
C       -1.47270000      -0.47610000       0.01180000
O       -2.40660000       0.29300000       0.02290000
C       -1.68620000      -1.94040000       0.00610000
C       -2.87640000      -2.59970000       0.01220000
O       -2.62110000      -3.93200000       0.00350000
C       -1.26480000      -4.01910000      -0.00780000
N       -0.65610000      -2.88340000      -0.00680000
H        0.95940000       1.63320000       0.00150000
H        0.46210000      -0.47870000      -0.88270000
H        0.47580000      -0.48740000       0.87580000
H       -3.90600000      -2.28870000       0.02190000
H       -0.84480000      -5.01240000      -0.01610000
