17
Properties=species:S:1:pos:R:3 gdb_74060=T pbc="F F F"
C        0.10370000       1.51550000       0.03740000
C        0.01720000       0.02790000      -0.04790000
C        0.00830000      -0.72210000      -1.16100000
C       -0.09050000      -2.15660000      -0.84950000
O       -0.15880000      -3.08320000      -1.61680000
C       -0.05610000      -2.27830000       0.71190000
C       -0.09000000      -0.81010000       1.20710000
C       -1.10810000      -3.12710000       1.24080000
C       -1.99500000      -3.81050000       1.67720000
H        0.98520000       1.81810000       0.61640000
H        0.16030000       1.98030000      -0.94930000
H       -0.76720000       1.92320000       0.56570000
H        0.05490000      -0.35920000      -2.18030000
H        0.91790000      -2.72670000       0.94720000
H        0.72310000      -0.58590000       1.90720000
H       -1.02370000      -0.58910000       1.73660000
H       -2.77240000      -4.42720000       2.05480000
