16
Properties=species:S:1:pos:R:3 gdb_15973=T pbc="F F F"
O        0.12100000      -0.14430000       0.01280000
C        0.09900000       1.05150000       0.14870000
C        1.29780000       1.95390000       0.01380000
C        1.03020000       3.28210000      -0.74100000
O        1.18760000       4.06470000       0.46050000
C        1.51770000       2.89470000       1.20750000
C        1.14810000       2.74170000       2.64650000
C        2.60580000       2.88660000       2.22750000
H       -0.84470000       1.58820000       0.40240000
H        2.16620000       1.37850000      -0.30810000
H        1.78010000       3.53100000      -1.49910000
H        0.02700000       3.39170000      -1.16980000
H        0.67730000       3.59560000       3.12160000
H        0.80350000       1.77580000       3.00150000
H        3.25450000       2.01910000       2.29170000
H        3.08960000       3.83690000       2.42640000
