25
Properties=species:S:1:pos:R:3 gdb_89558=T pbc="F F F"
C       -0.01540000       1.62740000       0.00900000
C        0.05350000       0.10850000       0.01520000
C        1.05590000      -0.60730000      -0.93460000
C        1.36660000      -1.61610000       0.19490000
C        0.75080000      -0.60940000       1.20570000
C        0.74630000      -3.04060000       0.18010000
C        2.01580000      -3.56510000       0.90950000
C        2.59450000      -4.91170000       0.50470000
C        2.74380000      -2.26430000       0.46510000
H        0.97970000       2.06460000       0.15280000
H       -0.41030000       2.00560000      -0.94090000
H       -0.66230000       2.00240000       0.81050000
H       -0.94950000      -0.30880000      -0.12870000
H        0.67490000      -1.00940000      -1.87850000
H        1.92140000       0.03010000      -1.15240000
H        1.52170000       0.02770000       1.65520000
H        0.12040000      -1.00940000       2.00580000
H       -0.22280000      -3.18120000       0.66880000
H        0.68310000      -3.43830000      -0.83970000
H        1.85290000      -3.54210000       1.99290000
H        2.76410000      -4.95500000      -0.57760000
H        3.55450000      -5.09890000       0.99920000
H        1.91900000      -5.73360000       0.76850000
H        3.30330000      -2.42000000      -0.46520000
H        3.40110000      -1.76890000       1.18650000
