20
Properties=species:S:1:pos:R:3 gdb_35254=T pbc="F F F"
N       -0.10760000      -1.21830000       0.27860000
C       -0.08360000      -0.06460000       0.18760000
C       -0.05160000       1.36570000       0.06960000
C        0.51770000       2.20160000       1.20750000
C        1.28450000       2.09450000      -0.07680000
C        2.58080000       1.33780000      -0.15270000
C        3.12970000       0.91160000      -1.54570000
C        4.55710000       1.25660000      -1.04220000
C        3.91200000       2.11160000       0.08190000
H       -0.89740000       1.77890000      -0.46930000
H       -0.00180000       3.12330000       1.44270000
H        0.89580000       1.66080000       2.06780000
H        1.23110000       2.95930000      -0.73430000
H        2.53720000       0.46520000       0.50740000
H        2.92770000      -0.10920000      -1.87640000
H        2.80140000       1.60400000      -2.32820000
H        5.06590000       0.37690000      -0.63840000
H        5.23310000       1.75960000      -1.73680000
H        3.81730000       3.16140000      -0.21560000
H        4.35290000       2.07350000       1.08090000
