23
Properties=species:S:1:pos:R:3 gdb_110971=T pbc="F F F"
C       -0.03330000       1.61100000       0.00700000
C        0.00580000       0.08990000       0.20110000
C       -1.37090000      -0.55020000       0.05370000
C       -2.03970000      -0.79720000      -1.34050000
C       -1.08300000      -2.00790000      -1.52340000
C       -1.56410000      -2.10920000      -0.04280000
C       -1.19990000      -3.14330000       0.98850000
C       -2.98900000      -1.80990000      -0.62770000
O       -4.05470000      -1.40540000       0.18450000
H        0.95590000       2.05550000       0.15320000
H       -0.37210000       1.87320000      -1.00090000
H       -0.71880000       2.08500000       0.71880000
H        0.72810000      -0.34350000      -0.49730000
H        0.38590000      -0.13560000       1.20670000
H       -2.03050000      -0.06520000       0.78830000
H       -2.31020000      -0.05210000      -2.09020000
H       -1.42460000      -2.79970000      -2.19740000
H       -0.02920000      -1.78990000      -1.69110000
H       -0.14010000      -3.08630000       1.26040000
H       -1.79000000      -3.00480000       1.90140000
H       -1.39630000      -4.15480000       0.61630000
H       -3.39330000      -2.59590000      -1.27170000
H       -3.77170000      -0.67480000       0.74320000
