16
Properties=species:S:1:pos:R:3 gdb_6623=T pbc="F F F"
C       -0.00790000       1.45360000      -0.03700000
C        0.00970000       0.00220000      -0.02240000
C        0.02540000      -1.20810000      -0.00830000
C        0.04250000      -2.56770000       0.00620000
C        0.05980000      -3.77900000       0.02280000
C        0.06270000      -5.24360000      -0.00450000
C       -1.36540000      -5.81010000       0.01200000
O        0.81670000      -5.74970000      -1.10390000
H        1.00840000       1.86260000      -0.06590000
H       -0.54640000       1.83510000      -0.91190000
H       -0.50160000       1.85130000       0.85690000
H        0.59520000      -5.61100000       0.88170000
H       -1.92620000      -5.45940000      -0.86020000
H       -1.32040000      -6.90200000      -0.01240000
H       -1.90070000      -5.49220000       0.91130000
H        0.47580000      -5.33350000      -1.90370000
