19
Properties=species:S:1:pos:R:3 gdb_114293=T pbc="F F F"
C       -0.17560000       1.68370000       0.04560000
C        0.01660000       0.18390000       0.25980000
N       -1.21500000      -0.54290000      -0.02910000
C       -1.70210000      -0.73960000      -1.42410000
C       -1.94820000      -2.21980000      -1.10790000
C       -0.64120000      -2.90110000      -0.73720000
C        0.59540000      -2.62820000      -1.41380000
N        1.58680000      -2.41540000      -1.97280000
C       -1.34210000      -1.95250000       0.25010000
H        0.74010000       2.22800000       0.29410000
H       -0.41680000       1.90430000      -1.00000000
H       -0.99120000       2.06290000       0.66810000
H        0.86760000      -0.17330000      -0.33940000
H        0.26080000      -0.01420000       1.31070000
H       -2.61240000      -0.16940000      -1.62990000
H       -0.96450000      -0.54620000      -2.21300000
H       -2.82420000      -2.79410000      -1.37600000
H       -0.76380000      -3.94590000      -0.46470000
H       -1.60710000      -2.31710000       1.23770000
