19
Properties=species:S:1:pos:R:3 gdb_30695=T pbc="F F F"
C        0.06270000       1.39300000       0.04900000
O       -0.10040000       0.00140000      -0.07760000
C        0.63870000      -0.58770000      -1.14080000
C        2.13250000      -0.71900000      -0.81940000
C        0.01200000      -1.92490000      -1.40790000
C       -1.08540000      -2.47870000      -0.80370000
N       -1.24940000      -3.70740000      -1.40820000
C       -0.26100000      -3.83740000      -2.33580000
N        0.51840000      -2.78120000      -2.36230000
H        1.08490000       1.67630000       0.33910000
H       -0.18670000       1.91890000      -0.88640000
H       -0.62250000       1.72720000       0.83250000
H        0.53050000       0.03890000      -2.04360000
H        2.62770000      -1.26900000      -1.62320000
H        2.61110000       0.25980000      -0.72170000
H        2.26410000      -1.27200000       0.11540000
H       -1.73740000      -2.12090000      -0.02730000
H       -1.96520000      -4.38190000      -1.19720000
H       -0.16170000      -4.71560000      -2.95630000
