21
Properties=species:S:1:pos:R:3 gdb_90720=T pbc="F F F"
C       -0.53360000       1.17450000      -0.17390000
C        0.18210000      -0.16250000      -0.02820000
C        1.51650000      -0.29730000      -0.83830000
C        2.31300000      -0.46700000       0.48300000
C        0.98660000      -0.34490000       1.28680000
O        1.07070000      -1.72140000       1.71850000
C        2.32500000      -1.88210000       1.04290000
C        2.72960000      -3.17800000       0.42450000
C        3.44410000      -2.64920000       1.66460000
H        0.14410000       2.01220000       0.03040000
H       -0.92040000       1.30540000      -1.19020000
H       -1.37690000       1.25160000       0.52110000
H       -0.51500000      -0.99130000      -0.17940000
H        1.58240000      -1.13880000      -1.53250000
H        1.77310000       0.61870000      -1.37780000
H        3.20090000       0.14370000       0.64360000
H        0.79680000       0.33980000       2.11830000
H        2.05840000      -4.01930000       0.55940000
H        3.25430000      -3.16310000      -0.52570000
H        4.45620000      -2.27120000       1.55900000
H        3.23740000      -3.14420000       2.60750000
