18
Properties=species:S:1:pos:R:3 gdb_126891=T pbc="F F F"
C       -0.41290000       1.32310000       0.19110000
C        0.23020000      -0.05300000      -0.01150000
N        0.83080000      -0.55530000       1.22040000
C        0.13820000      -1.28530000       1.98020000
O       -1.15570000      -1.72140000       1.82590000
N       -1.51930000      -2.55350000       2.92940000
C       -0.46670000      -2.56760000       3.67350000
N        0.56870000      -1.83110000       3.18590000
C        1.89440000      -1.63030000       3.72760000
H        0.31510000       2.03110000       0.59840000
H       -0.78650000       1.71840000      -0.75920000
H       -1.25410000       1.25960000       0.88840000
H       -0.51540000      -0.75030000      -0.41800000
H        1.03160000       0.03060000      -0.75400000
H       -0.41670000      -3.11670000       4.60240000
H        1.96820000      -2.14000000       4.68960000
H        2.64910000      -2.02810000       3.04300000
H        2.08610000      -0.56250000       3.86270000
