18
Properties=species:S:1:pos:R:3 gdb_14489=T pbc="F F F"
C       -0.15700000       1.53720000      -0.01280000
C        0.00080000       0.01070000       0.00470000
C       -1.31450000      -0.58360000      -0.21230000
C       -2.42790000      -1.00200000      -0.39550000
C        1.21200000      -0.66690000      -0.75450000
C        2.15790000      -0.12320000       0.35510000
C        0.90990000      -0.67660000       1.10190000
C        1.00820000      -1.91100000       0.15850000
H        0.78210000       2.06990000       0.14070000
H       -0.57660000       1.85780000      -0.97130000
H       -0.85620000       1.84900000       0.76920000
H       -3.40370000      -1.38860000      -0.55620000
H        1.37390000      -0.65540000      -1.83370000
H        3.07930000      -0.69160000       0.50200000
H        2.35900000       0.94620000       0.39350000
H        0.72120000      -0.67650000       2.17680000
H        0.10150000      -2.49620000       0.00790000
H        1.88540000      -2.54670000       0.29800000
