21
Properties=species:S:1:pos:R:3 gdb_87683=T pbc="F F F"
C        0.18790000       1.46170000      -0.51400000
C        0.24010000      -0.02750000      -0.26280000
C        1.54420000      -0.73840000      -0.09640000
C        0.63880000      -0.55340000       1.10590000
C        0.88320000       0.19370000       2.42920000
C        0.21070000      -0.99380000       3.20510000
C       -1.00970000      -0.70190000       4.07200000
C       -0.06150000      -1.65820000       1.83610000
O       -0.64050000      -2.65270000       1.49100000
H        1.00580000       1.98070000      -0.00410000
H        0.27310000       1.67790000      -1.58440000
H       -0.75460000       1.89390000      -0.16080000
H       -0.55250000      -0.60570000      -0.73220000
H        1.64600000      -1.74830000      -0.48020000
H        2.45410000      -0.14550000      -0.11200000
H        1.93030000       0.37350000       2.68290000
H        0.33230000       1.13430000       2.52110000
H        0.94390000      -1.58210000       3.76940000
H       -1.74610000      -0.10130000       3.52710000
H       -1.49640000      -1.63410000       4.37400000
H       -0.73010000      -0.15230000       4.97660000
