21
Properties=species:S:1:pos:R:3 gdb_96851=T pbc="F F F"
C        0.38830000       1.40110000      -0.29030000
N        0.40300000      -0.05520000      -0.24100000
C        0.44190000      -0.60090000       0.89700000
N        0.45990000      -0.18670000       2.22350000
C        0.86000000      -1.52280000       2.73640000
C        0.06190000      -2.02730000       3.92440000
C        0.59980000      -2.07200000       1.28300000
C       -0.61430000      -2.96160000       1.06400000
O        1.76670000      -2.65030000       0.72720000
H        1.38160000       1.82210000      -0.07470000
H        0.10670000       1.72960000      -1.29420000
H       -0.32290000       1.84500000       0.42240000
H        0.81680000       0.69800000       2.55750000
H        1.93560000      -1.58700000       2.93510000
H       -1.01400000      -1.95940000       3.74350000
H        0.31650000      -3.06970000       4.14230000
H        0.29000000      -1.43710000       4.81850000
H       -1.51680000      -2.53730000       1.51250000
H       -0.79180000      -3.07270000      -0.00990000
H       -0.43790000      -3.95440000       1.48880000
H        1.83060000      -2.31310000      -0.17500000
