13
Properties=species:S:1:pos:R:3 gdb_17017=T pbc="F F F"
O       -0.02100000      -0.05140000      -0.19320000
C       -0.00990000       1.12900000       0.05690000
C        1.26630000       1.93300000       0.04340000
C        1.21920000       3.34710000      -0.62720000
N        0.38100000       3.79170000       0.56820000
C        1.48530000       2.95540000       1.20880000
C        2.44930000       3.70280000       0.24940000
O        3.44590000       4.34890000       0.24270000
H       -0.93180000       1.68310000       0.30860000
H        2.11280000       1.29560000      -0.21530000
H        0.95180000       3.60030000      -1.65100000
H        0.51200000       4.78770000       0.76170000
H        1.52160000       2.76190000       2.27880000
