20
Properties=species:S:1:pos:R:3 gdb_76503=T pbc="F F F"
C       -0.11950000       1.51030000       0.03260000
C        0.02290000       0.00440000       0.04250000
C        1.38610000      -0.64860000      -0.12410000
O        2.54460000       0.13590000      -0.17700000
C        0.69040000      -0.69700000       1.19710000
C        1.26740000      -0.10270000       2.50690000
C        0.81130000      -1.38920000       3.21220000
N       -0.65870000      -1.48130000       3.02210000
C        0.26080000      -1.94160000       1.94440000
H        0.78630000       1.99170000       0.41010000
H       -0.30090000       1.88510000      -0.98160000
H       -0.95870000       1.82830000       0.65950000
H       -0.80330000      -0.53620000      -0.41490000
H        1.43850000      -1.57150000      -0.70460000
H        2.58870000       0.54750000      -1.04650000
H        2.35220000       0.01170000       2.45760000
H        0.80980000       0.81780000       2.87820000
H        1.29650000      -1.89610000       4.03690000
H       -0.96500000      -2.31860000       3.51950000
H        0.22390000      -2.96020000       1.57610000
