16
Properties=species:S:1:pos:R:3 gdb_396=T pbc="F F F"
C       -0.16680000       1.25930000      -0.00760000
O        0.14120000      -0.11450000      -0.02510000
C        0.73040000      -0.63020000       1.16820000
C       -0.27870000      -0.74860000       2.31200000
C        1.29720000      -1.98960000       0.75100000
O        0.28750000      -2.83960000       0.24140000
H        0.71700000       1.86770000       0.23980000
H       -0.50580000       1.52600000      -1.01190000
H       -0.96610000       1.50620000       0.70530000
H        1.56610000       0.02280000       1.47210000
H       -0.73960000       0.21370000       2.55040000
H       -1.06180000      -1.46180000       2.04360000
H        0.22130000      -1.10880000       3.21680000
H        2.09380000      -1.82590000       0.00900000
H        1.73710000      -2.49550000       1.61660000
H       -0.16660000      -2.32310000      -0.43530000
