20
Properties=species:S:1:pos:R:3 gdb_72232=T pbc="F F F"
C        0.05900000       1.44110000       0.06290000
C        0.03690000      -0.06680000      -0.01480000
C        0.00010000      -0.75780000      -1.38050000
C       -0.77320000      -2.07110000      -1.06860000
N       -0.70390000      -2.25670000       0.39780000
C        0.75040000      -2.31290000       0.81210000
C        0.70060000      -0.82820000       1.12730000
O        1.50500000      -0.15360000       2.02480000
C       -0.80580000      -0.87590000       0.95390000
H        0.97980000       1.84560000      -0.37160000
H       -0.78670000       1.86850000      -0.48740000
H        0.01010000       1.78890000       1.09740000
H       -0.52080000      -0.13700000      -2.11720000
H        1.00350000      -0.95070000      -1.77530000
H       -1.82740000      -1.97280000      -1.34760000
H       -0.37230000      -2.95160000      -1.57860000
H        0.86270000      -2.93420000       1.70820000
H        1.44540000      -2.66920000       0.04210000
H        1.39920000      -0.56100000       2.89210000
H       -1.64960000      -0.53140000       1.53940000
