16
Properties=species:S:1:pos:R:3 gdb_18253=T pbc="F F F"
C       -0.00370000       1.39100000      -0.06250000
O       -0.00040000       0.00690000       0.20300000
C       -1.26420000      -0.60880000       0.06540000
C       -1.70510000      -0.87220000      -1.37350000
C       -2.01480000      -2.15310000      -1.57590000
C       -1.75360000      -2.94940000      -0.33330000
O       -0.35860000      -2.92930000       0.04230000
C       -1.24780000      -2.01020000       0.67510000
H        1.00410000       1.75850000       0.14480000
H       -0.24880000       1.61920000      -1.11040000
H       -0.71780000       1.92750000       0.58260000
H       -2.02620000      -0.00170000       0.58780000
H       -1.72390000      -0.09170000      -2.12490000
H       -2.35750000      -2.59110000      -2.50560000
H       -2.29130000      -3.86120000      -0.09350000
H       -1.37610000      -2.13850000       1.74580000
