20
Properties=species:S:1:pos:R:3 gdb_97749=T pbc="F F F"
C        0.46940000       1.07640000       0.41570000
C       -0.44640000       0.24290000      -0.49930000
C        0.27820000      -0.47250000      -1.54460000
C        0.89420000      -1.04910000      -2.40690000
C        1.59900000      -1.73160000      -3.45460000
C        3.05410000      -2.03780000      -3.41210000
C        3.54530000      -2.29790000      -1.99180000
C        2.44510000      -3.38910000      -1.92430000
N        2.03870000      -3.15820000      -3.35990000
H        1.19990000       0.43790000       0.92010000
H        1.01810000       1.82520000      -0.16190000
H       -0.12130000       1.59280000       1.17830000
H       -1.01470000      -0.47530000       0.10580000
H       -1.19370000       0.89790000      -0.96540000
H        1.21210000      -1.54000000      -4.45310000
H        3.68270000      -1.87390000      -4.28270000
H        4.55520000      -2.71000000      -1.95880000
H        3.47460000      -1.45860000      -1.29510000
H        2.83390000      -4.40370000      -1.82360000
H        1.63320000      -3.23510000      -1.20950000
