13
Properties=species:S:1:pos:R:3 gdb_130676=T pbc="F F F"
O       -0.14260000      -0.08500000       0.00540000
C       -0.06930000       1.10870000       0.01120000
N       -1.08110000       2.06190000       0.02960000
C       -0.50110000       3.30400000       0.02760000
C       -1.30200000       4.57270000       0.04500000
C       -0.49880000       5.78640000       0.04090000
C        0.13300000       6.80570000       0.03780000
N        0.78690000       3.23380000       0.00860000
O        1.08430000       1.84670000      -0.00280000
H       -2.05920000       1.83000000       0.04240000
H       -1.97720000       4.56550000      -0.82240000
H       -1.95400000       4.55610000       0.93000000
H        0.70780000       7.69900000       0.03450000
