23
Properties=species:S:1:pos:R:3 gdb_58432=T pbc="F F F"
C        0.27390000       1.29810000      -0.02870000
C        0.04770000      -0.18420000       0.28490000
O        0.54510000      -0.52110000       1.58200000
C       -1.43000000      -0.62820000       0.11380000
C       -2.22990000      -0.16280000       1.33890000
C       -2.09410000      -0.47880000      -1.31170000
C       -1.16390000      -1.61870000      -1.82400000
C       -1.68410000      -2.08870000      -0.42990000
C       -3.08390000      -1.61960000      -0.92470000
H        1.32380000       1.55430000       0.13970000
H        0.02580000       1.52260000      -1.07080000
H       -0.33810000       1.95070000       0.60510000
H        0.68940000      -0.76480000      -0.37900000
H        0.15070000       0.08510000       2.21710000
H       -3.30800000      -0.26620000       1.22500000
H       -1.93700000      -0.73400000       2.22500000
H       -2.04310000       0.89670000       1.54940000
H       -2.33840000       0.45230000      -1.82820000
H       -1.54340000      -2.18440000      -2.67850000
H       -0.10280000      -1.41260000      -1.95240000
H       -1.44510000      -3.02320000       0.08120000
H       -3.85760000      -1.41790000      -0.18640000
H       -3.49870000      -2.18130000      -1.76560000
