19
Properties=species:S:1:pos:R:3 gdb_41908=T pbc="F F F"
C        0.03090000       1.54280000      -0.06940000
O        1.34270000       2.08010000       0.06570000
C        2.32980000       1.11460000       0.41720000
C        1.81940000       0.19800000       1.53390000
O        0.57900000      -0.43270000       1.20360000
C        0.01900000       0.01620000      -0.01940000
C        0.70550000      -0.67680000      -1.22640000
O        2.09330000      -0.86060000      -1.05650000
C        2.82060000       0.32530000      -0.81300000
H       -0.59740000       1.92120000       0.74870000
H       -0.39610000       1.89940000      -1.01590000
H        3.17430000       1.69880000       0.80000000
H        2.55830000      -0.58360000       1.74760000
H        1.67470000       0.79460000       2.44440000
H       -1.02970000      -0.30400000      -0.00960000
H        0.29880000      -1.68520000      -1.34030000
H        0.48340000      -0.11120000      -2.14770000
H        2.79630000       1.00150000      -1.68240000
H        3.85480000       0.00200000      -0.65560000
