21
Properties=species:S:1:pos:R:3 gdb_121969=T pbc="F F F"
C       -0.04960000       1.53540000      -0.05310000
N       -0.00450000       0.07830000       0.01900000
C        0.70850000      -0.41990000       1.19620000
C        2.19890000      -0.07640000       1.18780000
C        2.95870000      -0.81150000       2.28610000
O        4.30460000      -0.36640000       2.24820000
C       -1.33860000      -0.50220000      -0.05060000
C       -1.98820000      -0.24900000      -1.34290000
N       -2.51580000      -0.05060000      -2.35110000
H        0.96210000       1.93830000      -0.12140000
H       -0.59110000       1.84090000      -0.95190000
H       -0.54760000       1.99050000       0.82410000
H        0.24630000      -0.05080000       2.13440000
H        0.59920000      -1.51180000       1.20360000
H        2.62610000      -0.33840000       0.21420000
H        2.35880000       0.99650000       1.33410000
H        2.49650000      -0.60210000       3.26530000
H        2.89230000      -1.89970000       2.12210000
H        4.79580000      -0.83040000       2.93220000
H       -1.26140000      -1.58760000       0.07690000
H       -2.01840000      -0.13670000       0.74490000
