22
Properties=species:S:1:pos:R:3 gdb_56025=T pbc="F F F"
C        0.36100000       1.41210000      -0.29450000
C        0.16490000      -0.09740000      -0.27780000
O        0.99220000      -0.85710000      -0.75010000
N       -0.99680000      -0.52500000       0.30120000
C       -1.36720000      -1.92140000       0.41350000
C       -1.61610000      -2.39270000       1.86100000
C       -2.46110000      -3.68340000       1.72410000
C       -3.00200000      -3.69130000       0.26100000
C       -2.67400000      -2.29980000      -0.30590000
H        1.29540000       1.64950000       0.22070000
H        0.46930000       1.74000000      -1.33180000
H       -0.45460000       1.97140000       0.17180000
H       -1.63430000       0.16220000       0.67050000
H       -0.53330000      -2.47610000      -0.02520000
H       -0.68490000      -2.53990000       2.41400000
H       -2.18440000      -1.61850000       2.39270000
H       -1.85650000      -4.57400000       1.91600000
H       -3.27500000      -3.69800000       2.45400000
H       -2.48480000      -4.45820000      -0.32500000
H       -4.06890000      -3.92280000       0.20990000
H       -3.45740000      -1.57850000      -0.03480000
H       -2.57630000      -2.28290000      -1.39460000
