21
Properties=species:S:1:pos:R:3 gdb_118662=T pbc="F F F"
O       -0.14250000       1.48000000       0.07890000
C        0.01110000       0.07220000      -0.03020000
C       -1.38180000      -0.54270000       0.00980000
C       -1.38240000      -2.08660000      -0.03950000
C       -2.81400000      -2.63820000       0.14040000
C       -2.87940000      -4.15710000       0.23350000
O       -4.23720000      -4.51140000       0.45260000
C       -0.76840000      -2.58320000      -1.27310000
C       -0.27920000      -2.98140000      -2.29740000
H        0.72450000       1.88400000      -0.01720000
H        0.51460000      -0.20670000      -0.96690000
H        0.61730000      -0.32740000       0.80050000
H       -1.87800000      -0.22170000       0.93240000
H       -1.96880000      -0.14730000      -0.82630000
H       -0.77580000      -2.44860000       0.80470000
H       -3.23990000      -2.21450000       1.05670000
H       -3.44410000      -2.30590000      -0.69170000
H       -2.49080000      -4.60410000      -0.69280000
H       -2.23860000      -4.50630000       1.06100000
H       -4.30190000      -5.47060000       0.44140000
H        0.15910000      -3.33700000      -3.19690000
