14
Properties=species:S:1:pos:R:3 gdb_43576=T pbc="F F F"
N       -0.01300000       1.17590000       0.39140000
C       -0.00340000      -0.02500000       0.01790000
O        1.11380000      -0.70560000      -0.42160000
C        0.75550000      -1.94720000      -1.05120000
C        1.63730000      -3.01920000      -0.57350000
N        2.31970000      -3.89120000      -0.24720000
C       -0.71790000      -2.17380000      -0.72600000
N       -0.94060000      -2.18130000       0.71850000
C       -1.17840000      -0.93530000      -0.05580000
H        0.91520000       1.59440000       0.31400000
H        0.89350000      -1.84100000      -2.13460000
H       -1.32840000      -2.75910000      -1.40240000
H       -1.83540000      -2.61900000       0.92580000
H       -2.17240000      -0.52010000      -0.15100000
