18
Properties=species:S:1:pos:R:3 gdb_86118=T pbc="F F F"
C        0.80040000       1.33220000      -0.19330000
C       -0.02830000       0.06200000       0.02750000
O        0.09610000      -0.81400000      -1.10480000
C        1.11130000      -1.72650000      -1.10730000
C        1.37000000      -2.22130000      -2.49960000
N        1.76400000      -2.15570000      -0.10980000
C        1.39920000      -1.71950000       1.22500000
C        0.37350000      -0.60480000       1.33760000
O       -0.07020000      -0.21930000       2.39230000
H        1.86870000       1.09920000      -0.24290000
H        0.50450000       1.80660000      -1.13230000
H        0.63260000       2.03130000       0.62980000
H       -1.08970000       0.31580000       0.08880000
H        1.68820000      -1.39630000      -3.14480000
H        2.13810000      -2.99290000      -2.47840000
H        0.44850000      -2.62800000      -2.92840000
H        1.02170000      -2.57740000       1.79720000
H        2.30070000      -1.39700000       1.76430000
