14
Properties=species:S:1:pos:R:3 gdb_42189=T pbc="F F F"
O       -0.00260000      -0.04550000      -0.09010000
C       -0.09110000       1.15370000      -0.01360000
C        1.10980000       2.00970000       0.03960000
N        2.06240000       2.66380000       0.07130000
C       -1.39810000       1.88000000       0.00080000
C       -2.26830000       2.30330000      -1.22390000
C       -2.83710000       2.92630000       0.07300000
C       -2.68930000       1.56530000       0.79730000
O       -1.44670000       3.26920000       0.48390000
H       -1.78410000       3.00380000      -1.90390000
H       -2.84510000       1.52570000      -1.72760000
H       -3.59370000       3.69850000       0.19620000
H       -3.30380000       0.72870000       0.46210000
H       -2.58060000       1.62230000       1.88010000
