20
Properties=species:S:1:pos:R:3 gdb_22909=T pbc="F F F"
C        0.15340000       1.65390000       0.00810000
C        0.02480000       0.11990000       0.02810000
C        0.70560000      -0.56620000      -1.17910000
O        0.50690000       0.19160000      -2.35680000
C        2.17870000      -0.72700000      -0.75070000
C        2.09500000      -1.08870000       0.74390000
C        0.77390000      -0.49530000       1.19460000
N        0.28420000      -0.49230000       2.36830000
O        1.16160000      -1.10540000       3.28520000
H        1.19920000       1.97640000      -0.00540000
H       -0.33560000       2.06470000      -0.87760000
H       -0.31390000       2.07010000       0.90430000
H       -1.03730000      -0.13530000       0.07630000
H        0.26280000      -1.56980000      -1.29310000
H        0.93060000      -0.27150000      -3.08590000
H        2.71120000      -1.47580000      -1.34480000
H        2.68950000       0.23110000      -0.89360000
H        2.07450000      -2.17290000       0.90860000
H        2.93010000      -0.71050000       1.34010000
H        0.67020000      -1.03670000       4.11040000
