21
Properties=species:S:1:pos:R:3 gdb_112718=T pbc="F F F"
C        0.37140000       0.59180000      -0.59130000
O       -0.16340000      -0.61150000      -0.08130000
C       -1.55330000      -0.55100000       0.27070000
C       -2.48120000      -0.59810000      -0.96420000
C       -2.80740000      -2.10550000      -1.21810000
O       -2.48850000      -2.55460000      -2.51270000
C       -2.00200000      -2.87930000      -0.12940000
O       -0.73890000      -3.27950000      -0.65960000
C       -1.86100000      -1.86250000       1.00690000
H        1.43760000       0.42450000      -0.76020000
H       -0.09400000       0.88990000      -1.54060000
H        0.24820000       1.41310000       0.12980000
H       -1.71600000       0.34070000       0.89110000
H       -3.39450000      -0.02810000      -0.76720000
H       -2.01580000      -0.16460000      -1.85220000
H       -3.88000000      -2.27510000      -1.06500000
H       -1.62570000      -2.98780000      -2.41400000
H       -2.50680000      -3.80040000       0.17230000
H       -0.16760000      -2.49580000      -0.62960000
H       -1.08600000      -2.12890000       1.72940000
H       -2.81450000      -1.76600000       1.53820000
