12
Properties=species:S:1:pos:R:3 gdb_381=T pbc="F F F"
N       -0.04830000       1.47740000       0.04260000
C        0.02760000       0.02420000      -0.01320000
C       -1.40500000      -0.53030000      -0.02880000
O       -2.13220000      -0.08790000      -1.16490000
C       -1.40220000      -2.00230000       0.06440000
N       -1.38180000      -3.15700000       0.10360000
H        0.88110000       1.88220000       0.01450000
H       -0.55060000       1.81570000      -0.77230000
H        0.56350000      -0.38860000      -0.88770000
H        0.54090000      -0.34780000       0.88050000
H       -1.93910000      -0.12110000       0.83470000
H       -1.77650000      -0.53430000      -1.94270000
