14
Properties=species:S:1:pos:R:3 gdb_127969=T pbc="F F F"
C        0.00780000       1.44540000       0.07850000
N       -0.02330000      -0.00570000       0.10230000
C       -1.10360000      -0.62680000       0.00350000
O       -2.39370000      -0.10980000      -0.13770000
C       -3.21350000      -1.19430000      -0.20130000
N       -2.64400000      -2.33310000      -0.12210000
N       -1.29750000      -2.01640000       0.00930000
C       -0.29780000      -2.98260000       0.12920000
O       -0.49850000      -4.16530000       0.13050000
H        0.64540000       1.77750000      -0.74790000
H       -0.97760000       1.91240000      -0.03040000
H        0.46720000       1.81000000       1.00360000
H       -4.27120000      -1.01650000      -0.31250000
H        0.68400000      -2.49220000       0.22020000
