20
Properties=species:S:1:pos:R:3 gdb_89027=T pbc="F F F"
C        0.20980000       1.42420000      -0.44770000
C       -0.02060000       0.04120000       0.11430000
N        1.14380000      -0.85930000       0.20910000
C        0.45080000      -0.43300000       1.44410000
C        1.27020000       0.39270000       2.40700000
N        2.28480000      -0.43840000       3.03420000
C        2.66420000      -0.23160000       4.33980000
N        3.78870000      -0.96060000       4.72020000
O        2.08970000       0.52720000       5.09940000
H        1.18570000       1.81800000      -0.15820000
H        0.17550000       1.39790000      -1.54210000
H       -0.56370000       2.11940000      -0.10370000
H       -0.95280000      -0.41430000      -0.21920000
H        0.88080000      -1.80960000      -0.03620000
H       -0.17160000      -1.17970000       1.93530000
H        1.72770000       1.24360000       1.88850000
H        0.64840000       0.79340000       3.21050000
H        2.94380000      -0.86650000       2.40210000
H        3.93490000      -1.85490000       4.27550000
H        3.90280000      -0.98330000       5.72240000
