9
Properties=species:S:1:pos:R:3 gdb_771=T pbc="F F F"
N        0.01840000       1.36010000       0.15390000
C       -0.01930000      -0.00290000       0.04300000
N       -1.13240000      -0.70050000      -0.01120000
O       -0.65890000      -2.03280000      -0.04350000
C        0.66530000      -1.95460000      -0.01590000
N        1.14220000      -0.75270000       0.03640000
H        0.87090000       1.78030000      -0.18210000
H       -0.82380000       1.83970000      -0.12470000
H        1.21530000      -2.88440000      -0.03910000
