18
Properties=species:S:1:pos:R:3 gdb_133694=T pbc="F F F"
C       -0.30810000       1.48810000      -0.05110000
C        0.02750000       0.01340000       0.03990000
C        1.40000000      -0.55730000      -0.24770000
C        2.59260000       0.28200000      -0.65880000
C        0.83710000      -0.61220000       1.15990000
C        1.39580000       0.14330000       2.32680000
F        1.84620000       1.37650000       2.03080000
F        0.46790000       0.29030000       3.29050000
F        2.42600000      -0.52340000       2.87970000
H        0.51630000       2.13330000       0.24980000
H       -0.58390000       1.74520000      -1.07940000
H       -1.16270000       1.72700000       0.59070000
H       -0.79730000      -0.61880000      -0.28030000
H        1.38860000      -1.52770000      -0.73820000
H        2.60670000       1.26400000      -0.18770000
H        3.52700000      -0.22310000      -0.39200000
H        2.59160000       0.42520000      -1.74450000
H        0.50420000      -1.58660000       1.50470000
