19
Properties=species:S:1:pos:R:3 gdb_11111=T pbc="F F F"
C       -0.62030000       1.31730000      -0.12760000
C       -0.12140000      -0.12290000       0.01830000
C        1.00780000      -0.27080000       1.03950000
C        0.56180000      -0.17870000       2.53060000
C        0.62490000      -1.73720000       2.61970000
C        1.45480000      -1.73960000       1.29590000
C        1.22350000      -2.32940000       3.80300000
N        1.71880000      -2.78740000       4.74260000
H        0.18580000       1.98090000      -0.45930000
H       -1.43000000       1.38380000      -0.86040000
H       -1.00050000       1.70910000       0.82190000
H       -0.95920000      -0.77750000       0.29670000
H        0.23620000      -0.48770000      -0.95340000
H        1.82400000       0.40760000       0.77380000
H        1.31280000       0.29070000       3.16880000
H       -0.41050000       0.27250000       2.74100000
H       -0.36200000      -2.18160000       2.46700000
H        1.16830000      -2.48680000       0.55210000
H        2.52470000      -1.82830000       1.49340000
