18
Properties=species:S:1:pos:R:3 gdb_54374=T pbc="F F F"
C        0.00190000       1.45510000      -0.20360000
C        0.02710000      -0.03300000       0.07400000
O        1.04450000      -0.64780000       0.32420000
C       -1.26960000      -0.72660000       0.02760000
C       -1.89560000      -1.78620000       0.91850000
C       -3.12580000      -0.89600000       1.01040000
N       -2.69210000      -0.19360000      -0.26240000
C       -2.81850000      -1.31800000      -1.27280000
C       -1.69620000      -2.05990000      -0.56260000
H        1.01430000       1.85600000      -0.14450000
H       -0.42610000       1.64920000      -1.19310000
H       -0.64970000       1.96350000       0.51550000
H       -1.38480000      -2.36390000       1.67750000
H       -4.12250000      -1.34810000       0.96080000
H       -3.07790000      -0.19550000       1.84720000
H       -3.81500000      -1.77060000      -1.32430000
H       -2.52510000      -0.95480000      -2.26040000
H       -1.03610000      -2.84270000      -0.91260000
