13
Properties=species:S:1:pos:R:3 gdb_11687=T pbc="F F F"
O        0.05620000       0.02400000      -0.07420000
C        0.02400000       1.21170000       0.04380000
C       -1.13320000       2.24550000       0.16190000
C       -0.06610000       3.33570000      -0.06660000
N        0.86100000       3.20270000       1.07650000
C        1.05740000       2.30910000      -0.10460000
C       -0.19390000       4.52860000      -0.82460000
C       -0.32540000       5.54460000      -1.45580000
H       -1.83360000       2.12870000      -0.66880000
H       -1.66740000       2.30200000       1.11160000
H        1.56240000       3.93990000       0.99070000
H        1.98790000       2.31020000      -0.65820000
H       -0.43750000       6.43970000      -2.01640000
