14
Properties=species:S:1:pos:R:3 gdb_16299=T pbc="F F F"
O        0.09190000       1.46800000       0.20510000
C       -0.00390000       0.07900000       0.05260000
C        0.18950000      -0.71270000       1.36260000
N       -1.15080000      -1.39490000       1.23690000
C       -2.14100000      -0.31650000       1.25700000
C       -1.41340000      -0.54780000      -0.01600000
C       -2.02610000      -1.05440000      -1.20380000
N       -2.49380000      -1.42220000      -2.19660000
H       -0.01020000       1.88610000      -0.65680000
H        0.63060000      -0.29320000      -0.75940000
H        0.99370000      -1.44770000       1.32550000
H        0.28370000      -0.09880000       2.26220000
H       -3.16350000      -0.67520000       1.30640000
H       -1.93260000       0.59780000       1.80770000
