23
Properties=species:S:1:pos:R:3 gdb_103759=T pbc="F F F"
C        0.40200000       1.26300000       0.21380000
O       -0.17250000       0.03780000      -0.19640000
C        0.48480000      -0.58700000      -1.26750000
C        0.30970000       0.09580000      -2.60610000
C        1.78820000      -1.30250000      -0.94170000
C        0.50780000      -2.09070000      -1.17900000
C       -0.17120000      -2.79760000      -0.02660000
O        0.39000000      -2.73730000      -2.41910000
C        1.14780000      -3.92500000      -2.53890000
H        1.47040000       1.15250000       0.44830000
H        0.29310000       2.04890000      -0.54610000
H       -0.13020000       1.57510000       1.11570000
H        0.84530000       1.05030000      -2.64160000
H        0.68210000      -0.53970000      -3.40980000
H       -0.75220000       0.29120000      -2.78760000
H        2.55240000      -1.33400000      -1.71130000
H        2.16020000      -1.23910000       0.07550000
H       -0.20140000      -2.15250000       0.85160000
H       -1.20020000      -3.05170000      -0.30090000
H        0.35150000      -3.72230000       0.23950000
H        2.20940000      -3.75460000      -2.30910000
H        0.77520000      -4.72450000      -1.88400000
H        1.05650000      -4.25460000      -3.57670000
