18
Properties=species:S:1:pos:R:3 gdb_4115=T pbc="F F F"
C        0.02120000       1.58260000      -0.01630000
C        0.07150000       0.06540000       0.06420000
N        0.67860000      -0.63420000      -1.10660000
C       -0.21330000      -1.28080000      -2.04390000
C        1.51080000      -1.50170000      -0.23560000
C        1.13000000      -0.60290000       0.91750000
N        1.51200000      -0.37790000       2.09960000
O        2.56400000      -1.24020000       2.46370000
H        1.00930000       1.98450000      -0.25360000
H       -0.68010000       1.90410000      -0.79340000
H       -0.31010000       2.00270000       0.93830000
H       -0.92920000      -0.33510000       0.30770000
H       -0.83570000      -0.53020000      -2.54180000
H        0.36840000      -1.79500000      -2.81610000
H       -0.88420000      -2.02340000      -1.57000000
H        1.12450000      -2.52740000      -0.11340000
H        2.57080000      -1.55550000      -0.50490000
H        2.76170000      -0.95130000       3.36100000
