18
Properties=species:S:1:pos:R:3 gdb_102872=T pbc="F F F"
C       -0.76260000       0.79710000       0.53680000
N       -0.03610000      -0.38170000       0.97330000
C        0.97880000      -0.72470000       0.30940000
O        1.77040000      -1.77170000       0.59910000
C        1.51670000      -2.48390000       1.82580000
C        0.31810000      -3.46640000       1.73200000
N       -0.80310000      -2.96040000       2.51200000
C        2.77290000      -3.17630000       2.13440000
N        3.74190000      -3.74150000       2.40850000
H       -0.33180000       1.27380000      -0.35630000
H       -1.80220000       0.52960000       0.31900000
H       -0.78280000       1.53460000       1.34610000
H        1.35590000      -0.22330000      -0.58820000
H        1.29990000      -1.76430000       2.62280000
H        0.12900000      -3.62290000       0.65710000
H        0.61910000      -4.43400000       2.14510000
H       -1.09670000      -2.06860000       2.12240000
H       -1.58380000      -3.60590000       2.45870000
