13
Properties=species:S:1:pos:R:3 gdb_124335=T pbc="F F F"
C       -0.02890000       1.53300000      -0.01720000
C       -0.02230000       0.02290000       0.09030000
O       -0.03540000      -0.58370000       1.12260000
N        0.00210000      -0.66210000      -1.16150000
C        0.02090000      -0.12430000      -2.43180000
N        0.04120000      -1.00820000      -3.36180000
O        0.03620000      -2.25170000      -2.69500000
C        0.01220000      -2.07370000      -1.33300000
O        0.00300000      -2.94870000      -0.52980000
H        0.86470000       1.89700000      -0.53450000
H       -0.90730000       1.88730000      -0.56630000
H       -0.04910000       1.93750000       0.99370000
H        0.01900000       0.93400000      -2.63900000
