18
Properties=species:S:1:pos:R:3 gdb_125944=T pbc="F F F"
C       -0.05490000       1.60640000      -0.05930000
C       -0.00010000       0.07870000       0.03700000
C        0.75390000      -0.58750000      -1.17370000
C        1.55750000      -1.81950000      -0.63790000
C        1.59990000      -1.48180000       0.81400000
C        0.77850000      -0.47690000       1.19950000
C        0.98770000      -0.41830000       2.60050000
N        1.86780000      -1.31220000       3.00170000
O        2.26330000      -2.00990000       1.84070000
H        0.95370000       2.03280000      -0.07440000
H       -0.57140000       1.92110000      -0.97220000
H       -0.59090000       2.03870000       0.79180000
H       -1.03260000      -0.29670000       0.07070000
H        0.07120000      -0.86050000      -1.98220000
H        1.46090000       0.14250000      -1.58140000
H        1.02890000      -2.76550000      -0.80950000
H        2.54370000      -1.91470000      -1.10190000
H        0.55220000       0.23160000       3.34710000
