20
Properties=species:S:1:pos:R:3 gdb_86355=T pbc="F F F"
C       -0.81870000       1.06220000      -1.19700000
C        0.09890000      -0.08320000      -0.82430000
O        1.45620000       0.11460000      -1.28860000
C        2.00220000      -0.36740000      -0.04150000
C        3.16700000       0.46820000       0.44950000
C        0.60280000      -0.29830000       0.63150000
C        0.39030000       0.84720000       1.63270000
C       -0.98920000       0.91290000       2.11240000
N       -2.08350000       0.94480000       2.48250000
H       -0.44500000       2.02050000      -0.82620000
H       -0.88650000       1.13150000      -2.28700000
H       -1.82480000       0.89890000      -0.79940000
H       -0.30570000      -1.02190000      -1.23100000
H        2.32580000      -1.41420000      -0.14740000
H        2.89300000       1.51940000       0.57270000
H        3.54680000       0.08520000       1.40290000
H        3.98110000       0.41970000      -0.28020000
H        0.27330000      -1.23320000       1.08890000
H        1.04740000       0.70860000       2.49890000
H        0.65220000       1.81450000       1.19300000
