20
Properties=species:S:1:pos:R:3 gdb_66175=T pbc="F F F"
O        0.16930000       1.42190000      -0.47410000
C        0.02490000       0.09820000      -0.01960000
C        0.91340000      -0.85240000      -0.82780000
N        2.32110000      -0.48950000      -0.71830000
C        3.13810000      -0.31750000      -1.79980000
O        2.78570000      -0.34930000      -2.95740000
C        0.10570000      -0.13150000       1.52810000
C       -1.19290000      -0.97660000       1.43390000
C       -1.45100000      -0.36600000       0.02950000
H        1.10370000       1.56720000      -0.66680000
H        0.75920000      -1.88890000      -0.50210000
H        0.65980000      -0.78580000      -1.88810000
H        2.75900000      -0.54200000       0.18890000
H        4.18500000      -0.12440000      -1.49090000
H        0.99880000      -0.61250000       1.94120000
H       -0.05610000       0.81620000       2.04680000
H       -0.99180000      -2.05030000       1.39210000
H       -1.95270000      -0.80110000       2.19720000
H       -2.10530000       0.50750000       0.07260000
H       -1.79500000      -1.02860000      -0.76930000
