17
Properties=species:S:1:pos:R:3 gdb_75363=T pbc="F F F"
N       -0.05350000       1.26670000      -0.34550000
C       -0.06840000      -0.07870000      -0.07370000
N       -1.12040000      -0.78840000       0.07390000
C       -0.73720000      -2.18430000       0.32410000
C        0.78640000      -2.27250000       0.16910000
O        1.19470000      -2.56520000      -1.19300000
C        1.82150000      -1.28200000      -1.35540000
C        1.26330000      -0.80440000       0.00470000
O        2.10930000      -0.12960000       0.89570000
H        0.75810000       1.75420000       0.00540000
H       -0.92910000       1.74040000      -0.17510000
H       -1.07230000      -2.48210000       1.32620000
H       -1.22220000      -2.85520000      -0.39420000
H        1.29960000      -2.91260000       0.89480000
H        2.92110000      -1.35430000      -1.36600000
H        1.48780000      -0.75450000      -2.25540000
H        2.97880000      -0.54290000       0.87040000
