14
Properties=species:S:1:pos:R:3 gdb_127630=T pbc="F F F"
C       -0.00650000       1.43280000      -0.00450000
N       -0.02790000      -0.01160000       0.04650000
N        0.00720000      -0.75490000      -1.11120000
C        0.04690000      -2.04020000      -0.75690000
C        0.04700000      -2.15470000       0.65200000
C        0.00550000      -0.85510000       1.08800000
O       -0.00710000      -0.79700000       2.43580000
C        0.02900000      -2.15800000       2.76290000
N        0.06060000      -2.98470000       1.77530000
H        1.00300000       1.82490000       0.15960000
H       -0.35060000       1.73050000      -0.99470000
H       -0.67710000       1.84230000       0.75520000
H        0.06760000      -2.79830000      -1.52450000
H        0.02790000      -2.36770000       3.82070000
