18
Properties=species:S:1:pos:R:3 gdb_108754=T pbc="F F F"
C       -0.07120000       1.57500000       0.04680000
C        0.03540000       0.04250000       0.03870000
N        0.80880000      -0.46110000      -1.07600000
C        1.86400000      -1.26990000      -0.70040000
O        2.62990000      -1.84170000      -1.44720000
C        1.82920000      -1.26860000       0.79020000
C        0.79890000      -0.53510000       1.21900000
C        0.38070000      -0.27760000       2.62870000
O        1.22250000      -1.00020000       3.50330000
H        0.92360000       2.02630000       0.09690000
H       -0.56560000       1.92870000      -0.86320000
H       -0.66170000       1.92240000       0.90060000
H       -0.98400000      -0.37760000       0.02790000
H        0.54940000      -0.34480000      -2.04080000
H        2.54480000      -1.80490000       1.39400000
H        0.42540000       0.80710000       2.82990000
H       -0.67830000      -0.56820000       2.75020000
H        0.97220000      -0.78850000       4.40690000
