17
Properties=species:S:1:pos:R:3 gdb_54958=T pbc="F F F"
C        0.02610000       1.60270000      -0.43270000
C       -0.04360000       0.12960000      -0.07870000
N        1.24170000      -0.59100000      -0.07640000
C        0.55520000      -0.41770000       1.20440000
C        1.20850000       0.48200000       2.22650000
N        0.81090000       0.22250000       3.50900000
O        2.00590000       1.35610000       1.95360000
C       -1.20540000      -0.57680000      -0.56460000
C       -2.16640000      -1.16080000      -0.99260000
H        0.93120000       2.03840000      -0.01090000
H        0.03980000       1.71670000      -1.52060000
H       -0.85000000       2.13150000      -0.04550000
H        1.11370000      -1.54390000      -0.40810000
H        0.03430000      -1.28030000       1.61480000
H        0.07610000      -0.42780000       3.72500000
H        1.13240000       0.84270000       4.23410000
H       -3.01590000      -1.67380000      -1.37060000
