21
Properties=species:S:1:pos:R:3 gdb_90096=T pbc="F F F"
C       -0.09750000       1.65400000      -0.16210000
C        0.01240000       0.14270000      -0.00440000
C        1.01000000      -0.64630000      -0.99250000
C        1.87190000      -0.83160000       0.25980000
O        2.53020000      -1.78890000       1.20630000
C        2.09330000      -0.55840000       1.99780000
C        2.70770000       0.32660000       0.91310000
C        4.21290000       0.35490000       0.72210000
C        0.73390000      -0.61600000       1.21290000
H        0.86740000       2.15620000      -0.26050000
H       -0.67520000       1.89080000      -1.06280000
H       -0.62160000       2.09420000       0.69240000
H       -0.99630000      -0.27170000      -0.07110000
H        0.55170000      -1.56730000      -1.35960000
H        1.44850000      -0.09300000      -1.82840000
H        2.30100000      -0.62090000       3.07010000
H        2.26790000       1.32140000       0.83970000
H        4.62840000      -0.65080000       0.80130000
H        4.47360000       0.76820000      -0.25840000
H        4.68580000       0.99020000       1.47940000
H        0.18660000      -1.53040000       1.44590000
