15
Properties=species:S:1:pos:R:3 gdb_48619=T pbc="F F F"
O       -0.42630000       0.39260000       0.62760000
C        0.02910000       1.10610000      -0.22830000
C        1.27980000       1.90100000      -0.04310000
C        1.65700000       2.70760000       1.22320000
C        2.44570000       3.47270000       0.13580000
C        3.56130000       2.50410000      -0.28820000
C        2.65700000       1.25650000      -0.40880000
O        2.91800000       0.13050000      -0.70780000
O        1.39060000       3.13130000      -0.83080000
H       -0.43950000       1.21760000      -1.22940000
H        0.80220000       3.26910000       1.60040000
H        2.20070000       2.20940000       2.02840000
H        2.65930000       4.53820000       0.19460000
H        4.00190000       2.77020000      -1.25160000
H        4.35920000       2.35290000       0.44370000
