17
Properties=species:S:1:pos:R:3 gdb_55545=T pbc="F F F"
N        1.21730000      -0.47650000      -0.37300000
C        0.08610000       0.09290000       0.12670000
N        0.07470000       1.26950000       0.62450000
N       -1.08330000      -0.71090000       0.00280000
C       -1.19770000      -2.02810000      -0.35920000
O       -0.25390000      -2.75510000      -0.64250000
C       -2.60320000      -2.54820000      -0.38250000
C       -2.97220000      -3.39960000      -1.55590000
N       -2.77100000      -3.99940000      -0.24290000
H        2.07080000      -0.00350000      -0.12820000
H        1.21850000      -1.47620000      -0.51830000
H       -0.85610000       1.55720000       0.91530000
H       -1.93550000      -0.23570000       0.25610000
H       -3.36770000      -1.94430000       0.09980000
H       -3.99830000      -3.38240000      -1.91100000
H       -2.20840000      -3.54050000      -2.31480000
H       -1.83430000      -4.40340000      -0.21110000
