19
Properties=species:S:1:pos:R:3 gdb_92044=T pbc="F F F"
C        0.06530000       1.52050000       0.03450000
C       -0.04170000       0.02560000      -0.02180000
C       -0.05120000      -0.67170000      -1.16440000
C       -0.09120000      -2.15190000      -1.17160000
O        0.89100000      -2.84520000      -0.34370000
C       -0.48450000      -2.85900000       0.05980000
C       -0.83810000      -2.02390000       1.26620000
C       -0.04060000      -0.70650000       1.31280000
O        1.29740000      -0.92730000       1.75460000
H        0.95090000       1.81080000       0.61260000
H        0.13930000       1.96510000      -0.96140000
H       -0.80120000       1.96020000       0.54490000
H       -0.00880000      -0.16670000      -2.12560000
H       -0.24510000      -2.63870000      -2.13160000
H       -0.96190000      -3.83570000      -0.02080000
H       -1.91500000      -1.81360000       1.23580000
H       -0.63680000      -2.57600000       2.19060000
H       -0.48440000      -0.05830000       2.07650000
H        1.67880000      -1.53780000       1.10720000
