21
Properties=species:S:1:pos:R:3 gdb_68896=T pbc="F F F"
C       -0.08450000       1.52260000      -0.03870000
C        0.06110000       0.01750000       0.02270000
C        0.06580000      -0.66350000      -1.33920000
C        0.06170000      -2.19910000      -1.25630000
C        1.06820000      -2.70490000      -0.25910000
C        1.38150000      -2.00350000       0.82970000
C        0.75400000      -0.68290000       1.13470000
C        1.33560000       0.03460000       2.33200000
O       -0.69860000      -0.65010000       1.03860000
H        0.73220000       1.96640000      -0.61850000
H       -1.02490000       1.78430000      -0.53660000
H       -0.09460000       1.97710000       0.95210000
H       -0.79800000      -0.31990000      -1.92080000
H        0.96040000      -0.32410000      -1.87810000
H       -0.93840000      -2.54080000      -0.96180000
H        0.25390000      -2.62310000      -2.24760000
H        1.52500000      -3.67510000      -0.43410000
H        2.10430000      -2.38140000       1.54770000
H        2.39180000       0.27240000       2.16330000
H        0.80080000       0.95690000       2.55850000
H        1.27810000      -0.61140000       3.21520000
