19
Properties=species:S:1:pos:R:3 gdb_82845=T pbc="F F F"
C       -0.14310000       1.59850000       0.07010000
C        0.05210000       0.09320000      -0.01190000
C        0.78510000      -0.57780000      -1.21360000
C        2.12340000       0.12700000      -1.54220000
C        2.96370000      -0.37270000      -0.35180000
O        2.36050000       0.08810000       0.85710000
C        1.09750000      -0.59450000       0.89870000
C        1.31980000      -1.67710000      -0.21280000
O        2.72000000      -1.76880000      -0.36290000
H        0.81530000       2.12300000       0.08790000
H       -0.72660000       1.97150000      -0.77860000
H       -0.68020000       1.86840000       0.98600000
H       -0.90850000      -0.41850000       0.13110000
H        0.20210000      -0.86840000      -2.08730000
H        2.55110000      -0.24030000      -2.47910000
H        2.05320000       1.21490000      -1.58830000
H        4.03100000      -0.15750000      -0.33590000
H        0.86400000      -0.84260000       1.93520000
H        0.84650000      -2.65230000      -0.14510000
