21
Properties=species:S:1:pos:R:3 gdb_92372=T pbc="F F F"
C       -0.24640000       1.56120000      -0.06740000
C        0.02700000       0.06830000       0.01020000
O        0.75850000      -0.37890000      -1.15010000
C        1.81520000      -1.18000000      -0.62110000
C        2.93210000      -0.24540000      -0.12290000
C        2.27300000       0.27190000       1.18930000
C        0.91360000      -0.47260000       1.16540000
C        0.22470000      -0.68260000       2.49190000
O        1.29410000      -1.73640000       0.56690000
H        0.67570000       2.14120000      -0.15490000
H       -0.86180000       1.77930000      -0.94480000
H       -0.79380000       1.90070000       0.81870000
H       -0.93090000      -0.47120000       0.04400000
H        2.08420000      -1.95700000      -1.33690000
H        3.85390000      -0.79940000       0.07210000
H        3.14230000       0.54080000      -0.85030000
H        2.83910000      -0.03710000       2.07140000
H        2.16810000       1.35760000       1.22550000
H       -0.06090000       0.27820000       2.93130000
H       -0.67790000      -1.28830000       2.36960000
H        0.89110000      -1.19320000       3.19270000
