16
Properties=species:S:1:pos:R:3 gdb_115263=T pbc="F F F"
O        0.08030000       1.36830000       0.13740000
C        0.04030000      -0.03440000       0.03180000
C       -1.40250000      -0.54550000      -0.05300000
C       -1.54180000      -2.08770000      -0.05610000
O       -2.38080000      -2.37250000       1.08820000
C       -2.60910000      -1.17100000       1.68400000
N       -2.13480000      -0.11450000       1.15130000
C       -3.38290000      -1.21760000       2.87850000
C       -4.03720000      -1.26450000       3.88460000
H       -0.54490000       1.60020000       0.83610000
H        0.58990000      -0.30700000      -0.87660000
H        0.53790000      -0.52740000       0.88500000
H       -1.87490000      -0.08540000      -0.92860000
H       -2.03380000      -2.48510000      -0.94630000
H       -0.58680000      -2.60550000       0.08680000
H       -4.61580000      -1.29780000       4.77530000
