16
Properties=species:S:1:pos:R:3 gdb_80130=T pbc="F F F"
C        0.12890000       1.63830000       0.02550000
C        0.09530000       0.11650000      -0.01640000
C        0.77260000      -0.67590000      -1.18430000
N        1.89630000       0.01240000      -1.83300000
C        2.95490000      -0.51790000      -1.37620000
O        2.87810000      -1.52580000      -0.46400000
C        1.47770000      -1.63230000      -0.16660000
C        0.99920000      -0.66420000       0.96080000
O        1.29840000      -0.52260000       2.10750000
H        1.13280000       2.01120000      -0.19070000
H       -0.55570000       2.06650000      -0.71200000
H       -0.16750000       1.98990000       1.01780000
H       -0.93400000      -0.24730000       0.11330000
H        0.09140000      -1.08440000      -1.93240000
H        3.96730000      -0.25300000      -1.65920000
H        1.19980000      -2.68270000      -0.07590000
