17
Properties=species:S:1:pos:R:3 gdb_94250=T pbc="F F F"
C       -0.51890000       1.33840000       0.02570000
C        0.18400000      -0.00330000      -0.07520000
N        1.54100000       0.02500000      -0.65670000
C        2.04600000      -0.96340000       0.31920000
C        0.81550000      -0.67330000       1.22350000
C        1.08850000       0.34040000       2.33840000
O        2.14770000       0.87620000       2.50900000
C        0.07720000      -1.80060000       1.76120000
N       -0.51950000      -2.68740000       2.20340000
H        0.12180000       2.08560000       0.50130000
H       -0.76050000       1.69840000      -0.97990000
H       -1.45710000       1.25390000       0.58410000
H       -0.48260000      -0.74230000      -0.54220000
H        1.59890000      -0.25360000      -1.62950000
H        2.05910000      -2.00330000      -0.02720000
H        3.00700000      -0.70130000       0.76740000
H        0.21020000       0.55330000       2.98280000
