17
Properties=species:S:1:pos:R:3 gdb_23269=T pbc="F F F"
O       -0.02040000       1.29160000       0.12060000
N        0.03680000      -0.10750000       0.13240000
C       -1.10860000      -0.63600000      -0.00050000
C       -2.46580000      -0.01340000      -0.21590000
N       -3.31580000      -1.06400000      -0.80980000
C       -2.73950000      -1.63110000      -2.03750000
C       -2.56300000      -2.34370000      -0.75040000
C       -1.22980000      -2.15210000      -0.04660000
O       -0.16050000      -2.78690000      -0.71410000
H        0.90720000       1.54120000       0.19680000
H       -2.90580000       0.30180000       0.73840000
H       -2.41170000       0.87100000      -0.85720000
H       -3.46760000      -1.98920000      -2.75810000
H       -1.86200000      -1.15520000      -2.47170000
H       -3.14240000      -3.23280000      -0.52610000
H       -1.31290000      -2.53430000       0.98570000
H        0.63160000      -2.27560000      -0.50480000
