19
Properties=species:S:1:pos:R:3 gdb_39103=T pbc="F F F"
C       -0.10260000       1.55650000       0.09680000
C        1.42190000       1.38990000       0.00860000
O        1.72400000       0.68440000       1.24520000
C        0.69480000      -0.34440000       1.30080000
C        0.00780000      -0.01690000      -0.01650000
O       -0.95180000      -0.80340000      -0.62430000
C       -0.80580000      -0.61570000      -2.04980000
C        0.49450000       0.22100000      -2.31490000
C        1.21770000       0.19670000      -0.96070000
H       -0.49830000       1.98310000       1.02020000
H       -0.56670000       2.01710000      -0.77410000
H        2.13750000       2.19910000      -0.11990000
H        1.14990000      -1.34040000       1.31600000
H        0.07590000      -0.20960000       2.19440000
H       -0.75550000      -1.60960000      -2.50650000
H       -1.69610000      -0.10890000      -2.43880000
H        1.09840000      -0.23250000      -3.10340000
H        0.24040000       1.23020000      -2.64700000
H        2.01060000      -0.55400000      -0.91810000
