17
Properties=species:S:1:pos:R:3 gdb_45148=T pbc="F F F"
O        0.20250000       0.05590000      -0.44410000
C        0.11320000       1.19160000      -0.08250000
C       -1.02150000       2.03600000       0.54140000
C       -0.05250000       3.24430000       0.55310000
O        0.69260000       3.34710000       1.78380000
C        1.77730000       2.59520000       1.22750000
C        3.20020000       2.95810000       1.49200000
C        2.60950000       1.66460000       2.04150000
C        1.07450000       2.39320000      -0.11700000
H       -1.85640000       2.14780000      -0.15960000
H       -1.40560000       1.71720000       1.51290000
H       -0.40910000       4.20910000       0.19220000
H        3.91180000       2.90150000       0.67480000
H        3.37270000       3.76580000       2.19540000
H        2.40160000       1.62600000       3.10530000
H        2.91200000       0.72070000       1.60040000
H        1.62060000       2.62130000      -1.03120000
