21
Properties=species:S:1:pos:R:3 gdb_74440=T pbc="F F F"
C       -0.01670000       1.49800000       0.07850000
C       -0.05800000       0.01160000      -0.02920000
C       -0.03930000      -0.79040000      -1.09600000
C        0.03250000      -2.22040000      -0.56150000
C       -0.52590000      -3.33350000      -1.41570000
C        1.49460000      -2.40800000      -0.01980000
C        1.47540000      -1.48310000       1.22920000
C        0.00840000      -0.94540000       1.16270000
O       -0.69060000      -2.09360000       0.68010000
H        0.88020000       1.83320000       0.61590000
H       -0.01520000       1.97360000      -0.90610000
H       -0.87700000       1.88100000       0.64200000
H        0.02320000      -0.51480000      -2.14140000
H        0.05190000      -3.43370000      -2.33990000
H       -0.48300000      -4.28620000      -0.87950000
H       -1.56750000      -3.13120000      -1.68010000
H        1.65560000      -3.45260000       0.26100000
H        2.25050000      -2.13090000      -0.75820000
H        1.62460000      -2.05300000       2.14930000
H        2.22090000      -0.68430000       1.19760000
H       -0.41540000      -0.59870000       2.10600000
