11
Properties=species:S:1:pos:R:3 gdb_129511=T pbc="F F F"
N       -0.11320000       1.35640000       0.00940000
C        0.10100000       0.02190000       0.00140000
O        1.15650000      -0.54840000      -0.00990000
N       -1.13610000      -0.72540000       0.00850000
N       -2.34990000      -0.11540000       0.02050000
N       -3.25530000      -0.97430000       0.02440000
O       -2.68070000      -2.24710000       0.01500000
C       -1.30060000      -2.11730000       0.00440000
O       -0.52360000      -3.01310000      -0.00510000
H        0.69760000       1.95060000       0.00350000
H       -1.03640000       1.75430000       0.01690000
