19
Properties=species:S:1:pos:R:3 gdb_38782=T pbc="F F F"
C        0.01960000       1.55840000      -0.23160000
C        1.31040000       0.79670000      -0.04100000
C        2.14700000       0.93160000       1.22420000
C        1.40240000       0.54240000       2.49770000
O        0.20930000       1.36640000       2.71390000
C       -0.61160000       0.20130000       2.64510000
C       -0.45030000      -0.53540000       1.33880000
C       -0.01750000       0.06780000       0.02830000
C        0.55100000      -0.73520000       2.46390000
H       -0.29820000       2.21730000       0.56510000
H       -0.22230000       1.89540000      -1.23430000
H        1.89810000       0.62980000      -0.93870000
H        3.02990000       0.28250000       1.15050000
H        2.52250000       1.95650000       1.33540000
H        2.05350000       0.60990000       3.37500000
H       -1.49460000       0.17010000       3.27310000
H       -1.15400000      -1.35940000       1.24960000
H       -0.26180000      -0.55630000      -0.82590000
H        0.79920000      -1.68290000       2.92170000
