12
Properties=species:S:1:pos:R:3 gdb_976=T pbc="F F F"
N        0.16990000       1.40380000       0.09800000
C        0.00280000       0.03350000       0.02650000
C       -1.09280000      -0.77370000       0.01340000
N       -2.43420000      -0.33300000      -0.02560000
N       -0.66160000      -2.10310000       0.04300000
C        0.62290000      -2.02780000       0.06140000
O        1.11400000      -0.74960000       0.06460000
H        0.89070000       1.75600000      -0.52100000
H       -0.71410000       1.86710000      -0.07700000
H       -2.91280000      -0.53230000       0.84900000
H       -2.94950000      -0.82320000      -0.75120000
H        1.35500000      -2.81880000       0.06350000
