21
Properties=species:S:1:pos:R:3 gdb_68528=T pbc="F F F"
C       -0.04660000       1.50420000       0.02480000
C        0.03720000      -0.01330000       0.03090000
C        0.70520000      -0.71540000      -1.19390000
C        0.53690000      -2.13490000      -0.58520000
C        1.17100000      -1.89550000       0.77590000
C        0.86890000      -0.64590000       1.14200000
C       -1.02400000      -2.15650000      -0.43410000
C       -1.68480000      -1.89300000       0.89480000
C       -1.35730000      -0.74120000      -0.02050000
H        0.94940000       1.95570000      -0.03360000
H       -0.62810000       1.86390000      -0.83130000
H       -0.53050000       1.87870000       0.93370000
H        0.13920000      -0.57520000      -2.12150000
H        1.74960000      -0.42250000      -1.34280000
H        0.93060000      -2.97630000      -1.15570000
H        1.67790000      -2.64910000       1.36600000
H        1.07970000      -0.16660000       2.09100000
H       -1.58260000      -2.67290000      -1.20640000
H       -2.73410000      -2.16280000       0.97040000
H       -1.12110000      -2.02690000       1.81040000
H       -2.16830000      -0.18570000      -0.47960000
