18
Properties=species:S:1:pos:R:3 gdb_94748=T pbc="F F F"
C        0.05250000       1.57550000       0.02780000
C        0.03560000       0.04560000      -0.00210000
C        0.80430000      -0.57190000      -1.20030000
C        1.28560000      -1.96600000      -0.73620000
C        1.43750000      -1.80040000       0.76850000
O        2.12740000      -0.60040000       1.15360000
C        0.69480000      -0.60070000       1.20390000
C        1.64370000      -2.95140000       1.61400000
N        1.79980000      -3.89700000       2.26010000
H        1.07900000       1.94560000       0.11360000
H       -0.38190000       1.98750000      -0.88830000
H       -0.52150000       1.96610000       0.87430000
H       -1.00630000      -0.30370000      -0.01550000
H        0.18730000      -0.62710000      -2.09980000
H        1.66890000       0.05490000      -1.43190000
H        0.53570000      -2.74160000      -0.92740000
H        2.21720000      -2.27970000      -1.21450000
H        0.26810000      -0.51680000       2.20040000
