16
Properties=species:S:1:pos:R:3 gdb_36993=T pbc="F F F"
C        0.10780000       1.47670000       0.21140000
C        1.42320000       1.77370000      -0.06400000
C        1.43940000       1.22590000      -1.57470000
C        0.50190000      -0.09190000      -1.41570000
C        0.00630000      -0.02040000       0.10660000
C        1.40910000      -0.61830000       0.41780000
C        2.35510000       0.61660000       0.35230000
C        2.59470000       0.27470000      -1.13550000
N        1.69170000      -0.95520000      -1.04160000
H       -0.69330000       2.05040000      -0.26090000
H        1.40330000       1.82260000      -2.48490000
H       -0.14360000      -0.42140000      -2.23620000
H       -0.90080000      -0.55800000       0.37810000
H        1.52520000      -1.40860000       1.15800000
H        3.15030000       0.77810000       1.07730000
H        3.56370000       0.22370000      -1.63340000
