15
Properties=species:S:1:pos:R:3 gdb_105140=T pbc="F F F"
N       -0.16020000       1.44900000       0.11540000
C        0.31670000       0.10480000      -0.18280000
C        0.93460000      -0.48320000       1.07500000
N       -0.02760000      -0.98530000       2.07050000
C        0.84770000      -1.95610000       1.39760000
C        0.22390000      -2.88720000       0.48700000
N       -0.24620000      -3.64620000      -0.24690000
C        2.12140000       0.18420000       1.57030000
N        3.07350000       0.69340000       1.98330000
H       -0.40120000       1.93720000      -0.73960000
H       -1.00220000       1.39790000       0.68020000
H       -0.45280000      -0.59710000      -0.53570000
H        1.08820000       0.16580000      -0.95730000
H        0.30040000      -0.82290000       3.01980000
H        1.68170000      -2.37510000       1.95330000
