15
Properties=species:S:1:pos:R:3 gdb_21191=T pbc="F F F"
C        0.08630000       1.44090000      -0.00610000
N        0.00310000      -0.00780000       0.06330000
C        0.60630000      -0.72670000       1.03260000
N        0.77030000      -2.02530000       1.07080000
C        1.38810000      -2.18620000       2.28770000
C        1.79380000      -3.51820000       2.81880000
N        1.60480000      -1.08770000       2.96340000
O        1.07330000      -0.07840000       2.10450000
H        1.07890000       1.79670000      -0.31190000
H       -0.65360000       1.79970000      -0.72400000
H       -0.14510000       1.86820000       0.97160000
H       -0.17630000      -0.52420000      -0.78230000
H        2.49150000      -4.00330000       2.12950000
H        2.26870000      -3.40910000       3.79480000
H        0.91990000      -4.16980000       2.91280000
