25
Properties=species:S:1:pos:R:3 gdb_100039=T pbc="F F F"
C        0.79280000       1.65630000      -0.08200000
C        0.54410000       0.16000000      -0.29660000
C        1.29030000      -0.47060000      -1.49500000
C        0.92510000       0.20470000      -2.82220000
O        2.70290000      -0.26960000      -1.35630000
C        0.92650000      -1.95670000      -1.58250000
C        1.79760000      -2.96210000      -2.28970000
C        1.55520000      -3.09610000      -0.80350000
C        2.69220000      -2.97660000       0.19390000
H        1.86400000       1.87470000      -0.04620000
H        0.35850000       2.26030000      -0.88400000
H        0.34540000       1.99040000       0.85920000
H        0.84020000      -0.39320000       0.60590000
H       -0.53010000      -0.02700000      -0.41670000
H        1.20200000       1.26120000      -2.81050000
H        1.46270000      -0.27840000      -3.64220000
H       -0.14840000       0.12420000      -3.01860000
H        2.93920000      -0.46210000      -0.44390000
H       -0.14260000      -2.08490000      -1.74120000
H        1.34670000      -3.67100000      -2.97590000
H        2.78290000      -2.61240000      -2.58130000
H        0.83780000      -3.86440000      -0.52310000
H        3.52370000      -2.38730000      -0.19930000
H        2.36620000      -2.53110000       1.14200000
H        3.09050000      -3.97030000       0.42720000
