17
Properties=species:S:1:pos:R:3 gdb_21150=T pbc="F F F"
C       -0.00830000       1.41960000       0.24970000
N        0.03870000       0.01710000      -0.12820000
C       -1.10250000      -0.75950000       0.00920000
C       -1.24250000      -2.14180000       0.04030000
C       -0.15070000      -3.16440000      -0.02090000
C       -2.63980000      -2.33090000       0.13120000
N       -3.32430000      -1.19460000       0.15600000
N       -2.35490000      -0.24040000       0.08560000
H        0.99310000       1.84490000       0.15810000
H       -0.65690000       1.97390000      -0.43880000
H       -0.36900000       1.59160000       1.27640000
H        0.86320000      -0.46270000       0.20230000
H        0.57480000      -3.05530000       0.79720000
H       -0.56570000      -4.17320000       0.05670000
H        0.41530000      -3.11750000      -0.96010000
H       -3.16900000      -3.27320000       0.17870000
H       -2.62500000       0.72670000       0.07770000
