17
Properties=species:S:1:pos:R:3 gdb_66110=T pbc="F F F"
C        0.07140000       1.49770000      -0.03130000
C        0.01970000      -0.02870000       0.00710000
O        0.73940000      -0.52350000      -1.12040000
C        1.36480000      -1.77100000      -0.80540000
C        1.55780000      -1.75520000       0.69510000
N        2.16390000      -0.49120000       1.16320000
C        0.70460000      -0.66860000       1.21880000
C       -1.38580000      -0.51030000      -0.03770000
N       -2.47510000      -0.89510000      -0.06590000
H        1.11280000       1.80460000       0.07940000
H       -0.31580000       1.86170000      -0.98520000
H       -0.52760000       1.92520000       0.77730000
H        0.72760000      -2.61900000      -1.09460000
H        2.29830000      -1.81150000      -1.37360000
H        1.72400000      -2.67890000       1.23760000
H        2.55000000      -0.62330000       2.09480000
H        0.17890000      -0.72040000       2.16500000
