22
Properties=species:S:1:pos:R:3 gdb_118876=T pbc="F F F"
C        0.00150000       1.61480000       0.02630000
C        0.08170000       0.08600000      -0.02010000
C        0.62990000      -0.51980000       1.27840000
C        0.75450000      -2.03970000       1.25540000
O       -0.50390000      -2.68580000       1.13830000
C        1.83980000      -2.68710000       0.29740000
C        2.47840000      -3.32970000       1.53160000
N        2.87720000      -2.20470000       2.41480000
C        1.48170000      -2.70410000       2.43630000
H        0.99110000       2.05480000       0.19080000
H       -0.39610000       2.02410000      -0.90770000
H       -0.64810000       1.95060000       0.84200000
H       -0.92190000      -0.31320000      -0.22410000
H        0.71330000      -0.22040000      -0.86450000
H        1.62050000      -0.10530000       1.49260000
H       -0.02580000      -0.24360000       2.11490000
H       -0.89420000      -2.42570000       0.29750000
H        1.36830000      -3.41150000      -0.36980000
H        2.48830000      -2.01140000      -0.26650000
H        2.97480000      -4.28950000       1.60180000
H        3.34570000      -2.60780000       3.22580000
H        1.01660000      -3.06860000       3.34400000
