20
Properties=species:S:1:pos:R:3 gdb_124593=T pbc="F F F"
C        0.48080000       1.54530000      -0.40600000
C        0.03150000       0.17880000       0.10950000
C        0.21150000      -0.92960000      -0.93380000
N        0.73100000      -0.17400000       1.34780000
C        1.86170000       0.30860000       1.90190000
N        2.15410000      -0.34340000       3.01230000
C        1.14140000      -1.25470000       3.10420000
C        1.02570000      -2.23920000       4.21920000
N        0.25780000      -1.18880000       2.11670000
H        1.52750000       1.53070000      -0.72700000
H       -0.12480000       1.81780000      -1.27400000
H        0.35810000       2.32310000       0.35290000
H       -1.02770000       0.23240000       0.38250000
H        1.25940000      -1.00390000      -1.24250000
H       -0.09820000      -1.89100000      -0.51940000
H       -0.39510000      -0.71590000      -1.81900000
H        2.42850000       1.12270000       1.47890000
H        0.94970000      -1.72590000       5.18300000
H        0.14230000      -2.86460000       4.08020000
H        1.91210000      -2.87990000       4.26300000
