19
Properties=species:S:1:pos:R:3 gdb_97763=T pbc="F F F"
C       -0.59950000       1.19470000       0.17340000
C        0.23040000      -0.05750000      -0.01990000
C        1.03120000      -0.21260000      -1.33100000
C        2.27660000      -0.27730000      -0.40500000
O        1.45200000      -0.03620000       0.76500000
C        2.99800000      -1.53870000      -0.36430000
C        3.59400000      -2.58670000      -0.34650000
C        4.34780000      -3.83650000      -0.26700000
O        5.72670000      -3.65390000       0.02140000
H       -0.02620000       2.08740000      -0.09610000
H       -1.50110000       1.15640000      -0.44810000
H       -0.90970000       1.28870000       1.21880000
H       -0.36210000      -0.94780000       0.23100000
H        0.83640000      -1.11130000      -1.91520000
H        1.00960000       0.66340000      -1.98190000
H        2.98900000       0.54540000      -0.54630000
H        3.86670000      -4.49890000       0.47070000
H        4.31190000      -4.35980000      -1.22920000
H        5.78480000      -3.09570000       0.80400000
