17
Properties=species:S:1:pos:R:3 gdb_130456=T pbc="F F F"
N        0.58180000       1.64770000       1.08780000
H        1.18240000       0.84550000       1.25160000
H        0.78280000       2.98680000       2.24730000
H        0.82900000       2.01320000       0.17190000
C       -0.83950000       1.24450000       1.10230000
C       -1.75610000       2.47560000       1.11020000
C       -1.76730000       3.24520000       2.40020000
N       -2.91910000       3.52150000       2.97230000
O       -2.62740000       4.25990000       4.10160000
C       -1.28760000       4.40640000       4.20030000
C       -0.67340000       3.78720000       3.15520000
O        0.64480000       3.72170000       2.89790000
H       -1.09710000       0.61020000       0.24230000
H       -1.00930000       0.65150000       2.00640000
H       -1.45760000       3.13810000       0.28500000
H       -2.78390000       2.16420000       0.90310000
H       -0.92250000       4.96460000       5.04620000
