22
Properties=species:S:1:pos:R:3 gdb_100738=T pbc="F F F"
C       -0.22290000       1.33340000       0.05660000
O        0.09710000      -0.03410000      -0.04560000
C        0.69880000      -0.59280000       1.11720000
C       -0.35060000      -0.91080000       2.18570000
C        1.46650000      -1.84470000       0.65030000
C        2.50550000      -1.50470000      -0.43210000
C        2.18830000      -2.47840000       1.84100000
N        1.98120000      -3.81600000       2.01110000
O        2.91370000      -1.83470000       2.57780000
H        0.66010000       1.93920000       0.31270000
H       -0.59600000       1.65020000      -0.92090000
H       -1.00370000       1.53250000       0.80530000
H        1.43490000       0.11330000       1.53020000
H       -0.89890000      -0.01130000       2.47930000
H       -1.07430000      -1.64000000       1.80660000
H        0.12300000      -1.31420000       3.08470000
H        0.73230000      -2.54740000       0.23530000
H        3.27880000      -0.85330000      -0.01470000
H        2.99240000      -2.41000000      -0.80790000
H        2.02070000      -0.99340000      -1.26480000
H        1.41000000      -4.35620000       1.38650000
H        2.48420000      -4.28840000       2.74480000
