20
Properties=species:S:1:pos:R:3 gdb_97163=T pbc="F F F"
C       -0.01460000       1.43680000      -0.03160000
N       -0.01090000      -0.01400000      -0.13090000
C       -1.08380000      -0.65040000       0.04080000
O       -2.30530000      -0.06920000       0.29360000
C       -3.28690000      -1.05900000       0.64060000
C       -2.74980000      -2.38290000       0.10890000
C       -2.82920000      -2.62290000      -1.42900000
C       -1.27790000      -2.71410000      -1.48330000
C       -1.21820000      -2.15630000      -0.03270000
H        0.92610000       1.76470000       0.42210000
H       -0.05560000       1.87780000      -1.03600000
H       -0.85260000       1.84080000       0.54850000
H       -3.40480000      -1.07330000       1.73190000
H       -4.23750000      -0.75670000       0.19050000
H       -3.06040000      -3.23760000       0.71070000
H       -3.38180000      -3.50820000      -1.75020000
H       -3.22670000      -1.75610000      -1.96500000
H       -0.92290000      -3.74630000      -1.53200000
H       -0.75930000      -2.12730000      -2.24360000
H       -0.52770000      -2.64170000       0.65780000
