18
Properties=species:S:1:pos:R:3 gdb_102924=T pbc="F F F"
O        0.09090000       1.25820000      -0.41020000
C       -0.07640000      -0.00800000       0.19260000
C       -1.56050000      -0.32090000       0.46020000
N       -2.08430000       0.72850000       1.33850000
C       -3.46900000       0.52650000       1.78980000
C       -3.67600000      -0.66160000       2.62470000
C       -3.79720000      -1.63740000       3.31650000
C       -2.30070000      -0.30190000      -0.87560000
O       -2.41830000      -1.26780000      -1.58160000
H       -0.47920000       1.86620000       0.07780000
H        0.33610000      -0.75500000      -0.49120000
H        0.47630000      -0.08440000       1.14560000
H       -1.64470000      -1.33670000       0.87530000
H       -1.48980000       0.78770000       2.16120000
H       -3.77930000       1.42170000       2.34070000
H       -4.11860000       0.47320000       0.90790000
H       -3.92150000      -2.50030000       3.92350000
H       -2.69990000       0.69440000      -1.16780000
