16
Properties=species:S:1:pos:R:3 gdb_109422=T pbc="F F F"
C        0.05150000       1.56630000       0.00250000
N       -0.13800000       0.11750000      -0.07520000
C        0.65390000      -0.55330000      -1.07530000
C        2.16530000      -0.74210000      -0.81090000
O        2.91280000       0.05650000      -0.29670000
C        2.52720000      -2.11720000      -1.26010000
C        1.42760000      -2.81390000      -1.58700000
C        0.19540000      -1.99610000      -1.38470000
O       -0.93770000      -2.40030000      -1.43610000
H        1.08050000       1.87750000       0.22400000
H       -0.24500000       2.01410000      -0.95320000
H       -0.61370000       1.96560000       0.77360000
H        0.00660000      -0.30710000       0.83400000
H        0.56290000       0.00580000      -2.01920000
H        3.55480000      -2.46120000      -1.28540000
H        1.37820000      -3.84000000      -1.93190000
