19
Properties=species:S:1:pos:R:3 gdb_22409=T pbc="F F F"
O        0.10900000       1.41310000       0.04420000
C        0.00310000      -0.00460000       0.06860000
C       -1.47270000      -0.37410000       0.06240000
N       -2.11650000      -0.05500000      -1.19550000
C       -2.44280000       1.37010000      -1.49310000
C       -3.80900000       0.90140000      -1.93360000
C       -3.53330000      -0.47080000      -1.36060000
N       -4.73780000       1.47560000      -2.56750000
O       -5.82820000       0.60270000      -2.75680000
H        1.03050000       1.64630000      -0.09810000
H        0.48570000      -0.45670000      -0.80970000
H        0.47400000      -0.42050000       0.97360000
H       -1.55280000      -1.45690000       0.21720000
H       -1.96340000       0.11780000       0.92560000
H       -2.47100000       2.01280000      -0.60140000
H       -1.79820000       1.84130000      -2.24010000
H       -3.69180000      -1.33160000      -2.01910000
H       -4.07190000      -0.64610000      -0.41470000
H       -6.44190000       1.15180000      -3.25630000
