18
Properties=species:S:1:pos:R:3 gdb_125322=T pbc="F F F"
C        0.16090000       1.45730000       0.02410000
C        0.06530000      -0.03260000      -0.02020000
C        0.08900000      -0.89000000      -1.09670000
N       -0.04920000      -2.12730000      -0.55740000
C       -0.01900000      -3.42560000      -1.20400000
C        1.40990000      -3.97870000      -1.32970000
O        1.41660000      -5.23020000      -1.98640000
N       -0.14450000      -2.04660000       0.78430000
N       -0.07940000      -0.78690000       1.10880000
H        1.00770000       1.77730000       0.63940000
H        0.29100000       1.87230000      -0.97850000
H       -0.74150000       1.89660000       0.46100000
H        0.17910000      -0.72920000      -2.15810000
H       -0.63080000      -4.09790000      -0.59650000
H       -0.47470000      -3.34430000      -2.19410000
H        2.01370000      -3.30220000      -1.94330000
H        1.86950000      -4.02210000      -0.33290000
H        1.08550000      -5.89410000      -1.37330000
