17
Properties=species:S:1:pos:R:3 gdb_54560=T pbc="F F F"
N       -0.12210000       1.14150000       0.50600000
C        0.01160000      -0.07880000      -0.08260000
O        1.04480000      -0.51110000      -0.55600000
C       -1.27100000      -0.86860000      -0.10090000
C       -2.14480000      -1.23140000      -1.31010000
C       -2.90980000      -1.70680000      -0.07430000
C       -1.62810000      -2.17610000       0.67960000
C       -2.04520000      -1.33230000       1.87740000
N       -2.51480000      -0.43500000       0.73300000
H        0.65670000       1.77980000       0.48380000
H       -1.03780000       1.47220000       0.76560000
H       -2.57780000      -0.39110000      -1.85900000
H       -1.75020000      -1.99960000      -1.97730000
H       -3.91850000      -2.11260000       0.01610000
H       -1.12140000      -3.14280000       0.61650000
H       -2.86670000      -1.69810000       2.50150000
H       -1.26260000      -0.88140000       2.49490000
