21
Properties=species:S:1:pos:R:3 gdb_109957=T pbc="F F F"
O        0.07710000       1.40580000      -0.11750000
C        0.02490000       0.01670000       0.14530000
C       -1.40440000      -0.52810000       0.08140000
C       -1.98600000      -0.59330000      -1.36000000
O       -1.31290000       0.24830000      -2.28140000
C       -1.69530000      -2.12100000      -1.40630000
C       -1.50800000      -2.06460000       0.11600000
C       -0.78380000      -3.03350000       1.00320000
C       -2.28280000      -2.87000000       1.11790000
H       -0.25850000       1.51080000      -1.01640000
H        0.67510000      -0.54930000      -0.53970000
H        0.42290000      -0.12670000       1.15600000
H       -2.02320000       0.01790000       0.79970000
H       -3.06390000      -0.38840000      -1.36480000
H       -1.71660000       0.15320000      -3.14910000
H       -2.48360000      -2.77040000      -1.79740000
H       -0.76200000      -2.32400000      -1.94140000
H       -0.40040000      -3.94510000       0.55560000
H       -0.16540000      -2.63950000       1.80340000
H       -2.67480000      -2.36050000       1.99280000
H       -2.91370000      -3.67370000       0.75060000
