17
Properties=species:S:1:pos:R:3 gdb_33313=T pbc="F F F"
C       -0.03820000      -3.83290000      -0.10720000
C       -0.01770000      -2.62570000      -0.06580000
C        0.00500000      -1.26670000      -0.01950000
C        0.03050000      -0.05580000       0.02680000
C        0.02850000       1.38780000       0.05080000
C        0.08010000       2.15450000       1.42390000
C        1.56920000       1.72020000       1.54780000
C        1.38860000       2.17880000       0.07180000
C        0.58020000       3.38790000       0.62060000
H       -0.05590000      -4.89360000      -0.14330000
H       -0.70890000       1.78400000      -0.65580000
H       -0.68920000       2.12720000       2.19600000
H        2.20420000       2.35200000       2.17360000
H        1.76280000       0.65960000       1.71610000
H        2.13540000       2.17950000      -0.72270000
H       -0.13290000       3.85920000      -0.06120000
H        1.14890000       4.13080000       1.18420000
