22
Properties=species:S:1:pos:R:3 gdb_59234=T pbc="F F F"
C       -0.01590000       1.62450000       0.12660000
C        0.02860000       0.09410000       0.01540000
C        0.81340000      -0.52890000       1.17850000
C       -1.38330000      -0.48610000      -0.05970000
C       -2.27570000      -0.13840000      -1.25710000
N       -1.64580000      -0.76370000      -2.45120000
C       -2.52610000      -1.57050000      -1.56600000
C       -1.58700000      -2.02280000      -0.44040000
O       -0.47150000      -2.77020000      -0.84210000
H        0.99520000       2.04440000       0.15230000
H       -0.54210000       2.07620000      -0.72090000
H       -0.52740000       1.93870000       1.04480000
H        0.54240000      -0.15980000      -0.91960000
H        0.87800000      -1.61370000       1.06490000
H        1.83150000      -0.12730000       1.22290000
H        0.33090000      -0.31030000       2.13950000
H       -1.92010000      -0.28230000       0.87510000
H       -2.94220000       0.70740000      -1.37370000
H       -2.19220000      -0.49770000      -3.26830000
H       -3.40430000      -2.06590000      -1.96170000
H       -2.08300000      -2.58180000       0.35540000
H       -0.17970000      -2.36460000      -1.67070000
