20
Properties=species:S:1:pos:R:3 gdb_77091=T pbc="F F F"
C       -0.47690000       1.33020000      -0.06950000
C        0.01930000      -0.10510000      -0.00440000
N        1.24670000      -0.41210000      -0.76030000
C        1.92370000      -1.08690000       0.34480000
C        0.74690000      -0.63970000       1.27710000
C        1.13170000       0.38460000       2.33420000
O       -0.01780000      -1.69150000       1.82810000
C        1.49530000      -0.51680000      -2.08600000
O        2.48440000      -1.03620000      -2.56230000
H        0.31860000       2.04430000       0.15910000
H       -0.85800000       1.56000000      -1.06940000
H       -1.29890000       1.47860000       0.63830000
H       -0.79530000      -0.79720000      -0.25170000
H        1.98410000      -2.17260000       0.21600000
H        2.91700000      -0.68900000       0.57510000
H        1.69890000       1.21540000       1.90590000
H        0.24270000       0.78450000       2.83040000
H        1.76720000      -0.08480000       3.09540000
H        0.43090000      -2.01410000       2.61740000
H        0.69590000      -0.05170000      -2.69920000
