17
Properties=species:S:1:pos:R:3 gdb_69861=T pbc="F F F"
C       -0.03550000       1.54660000       0.08690000
C        0.00900000       0.04900000       0.03300000
C       -0.88970000      -0.88470000       0.79270000
C        0.60350000      -0.96020000       1.01010000
C        1.32430000      -1.67070000      -0.16380000
N        0.33520000      -2.14570000      -1.14140000
C        0.73580000      -0.70650000      -1.13940000
C        1.33680000      -0.09440000      -2.27100000
N        1.82280000       0.42010000      -3.18860000
H        0.94230000       1.98690000      -0.13700000
H       -0.75390000       1.94870000      -0.63700000
H       -0.33790000       1.88460000       1.08260000
H       -1.42810000      -0.40570000       1.60500000
H       -1.41860000      -1.69070000       0.30110000
H        1.07810000      -0.77340000       1.96400000
H        2.33250000      -2.06270000      -0.14110000
H        0.83750000      -2.59880000      -1.90510000
