22
Properties=species:S:1:pos:R:3 gdb_121434=T pbc="F F F"
C        0.00630000       1.45200000      -0.02600000
C        0.02900000      -0.05220000      -0.22490000
O       -1.28980000      -0.54350000       0.05260000
C       -1.49870000      -1.86780000      -0.09510000
C       -2.92700000      -2.22930000       0.22690000
N       -0.56510000      -2.64490000      -0.46000000
C       -0.81660000      -4.07020000      -0.61290000
C        0.34960000      -4.67190000      -1.40010000
O        1.58290000      -4.36640000      -0.78550000
H        0.99790000       1.86860000      -0.22590000
H       -0.70950000       1.92480000      -0.70450000
H       -0.27400000       1.70620000       1.00020000
H        0.30670000      -0.32790000      -1.24790000
H        0.74250000      -0.54240000       0.44670000
H       -3.47660000      -1.35030000       0.56280000
H       -3.42470000      -2.64420000      -0.65560000
H       -2.95870000      -2.99600000       1.00710000
H       -0.85980000      -4.55160000       0.37540000
H       -1.76530000      -4.28740000      -1.12700000
H        0.26080000      -5.76310000      -1.43740000
H        0.31300000      -4.29570000      -2.43640000
H        1.51900000      -3.42480000      -0.57390000
