19
Properties=species:S:1:pos:R:3 gdb_32920=T pbc="F F F"
C        0.04990000       1.38650000       0.23980000
C       -0.20740000      -0.04320000      -0.22140000
N        0.89600000      -0.51280000      -1.06950000
C        0.88740000      -1.82540000      -1.49760000
C        1.15480000      -2.46070000      -2.66920000
N        1.09980000      -3.83780000      -2.45760000
C        0.79260000      -3.97580000      -1.21240000
C        0.56320000      -5.21780000      -0.43220000
O        0.65060000      -2.78010000      -0.54950000
H        0.99290000       1.45270000       0.78960000
H        0.10420000       2.07500000      -0.61170000
H       -0.75970000       1.72980000       0.88990000
H       -0.26480000      -0.71330000       0.64030000
H       -1.17640000      -0.10670000      -0.74270000
H        1.08200000       0.11550000      -1.84070000
H        1.38300000      -2.03680000      -3.63340000
H        1.25090000      -5.29050000       0.41740000
H       -0.45660000      -5.25680000      -0.03330000
H        0.71840000      -6.07510000      -1.08800000
