11
Properties=species:S:1:pos:R:3 gdb_1821=T pbc="F F F"
O        0.01200000      -0.00690000       0.00330000
C       -0.02070000       1.19890000       0.01040000
C       -1.26320000       2.08860000       0.03210000
C       -0.70030000       3.50960000       0.03120000
O       -1.32550000       4.54110000       0.04560000
C        0.78910000       3.39140000       0.01070000
C        1.16740000       2.10480000      -0.00130000
H       -1.89880000       1.90960000      -0.84050000
H       -1.87400000       1.90100000       0.92050000
H        1.42650000       4.26730000       0.00660000
H        2.17760000       1.71360000      -0.01710000
