15
Properties=species:S:1:pos:R:3 gdb_48140=T pbc="F F F"
O       -0.59170000       1.09600000      -0.66600000
C        0.22660000       0.96830000       0.20570000
C        1.27510000       2.03730000       0.53240000
O        2.15260000       1.78300000       1.31980000
C        1.09680000       3.40640000      -0.15530000
O        0.06660000       4.05310000       0.59160000
C        0.66210000       5.15770000       1.28060000
C        2.16850000       4.91810000       1.13180000
O        2.24200000       4.19320000      -0.09780000
H        0.32380000       0.05650000       0.83240000
H        0.78970000       3.28730000      -1.19910000
H        0.34980000       6.09260000       0.79980000
H        0.32540000       5.15720000       2.32080000
H        2.75000000       5.83480000       1.01880000
H        2.57270000       4.32020000       1.95510000
