17
Properties=species:S:1:pos:R:3 gdb_77835=T pbc="F F F"
C       -0.50090000       1.44320000      -0.18380000
C       -0.07710000      -0.01670000      -0.10220000
C        1.24570000      -0.55530000      -0.77640000
C        2.07490000      -0.00910000       0.45610000
C        2.45220000       1.38330000       0.58070000
C        2.89950000       2.49200000       0.71810000
C        0.75650000      -0.59170000       1.10960000
C        1.00530000      -1.76480000       0.14470000
O        0.98390000      -2.95430000       0.11620000
H       -0.87910000       1.65690000      -1.18930000
H       -1.32130000       1.62410000       0.51910000
H        0.29920000       2.14560000       0.03670000
H       -0.94480000      -0.64210000      -0.33930000
H        1.53230000      -0.52180000      -1.82530000
H        2.96170000      -0.61350000       0.67450000
H        3.26070000       3.48440000       0.83090000
H        0.49710000      -0.59890000       2.16610000
