22
Properties=species:S:1:pos:R:3 gdb_96565=T pbc="F F F"
C        0.16880000       1.66400000       0.05340000
C        0.01360000       0.14250000       0.04210000
C        0.66620000      -0.47480000      -1.21240000
C        0.72990000      -2.01200000      -1.27350000
C       -0.59200000      -2.76690000      -1.01660000
C       -0.84940000      -3.17130000       0.43810000
O       -1.02140000      -2.06380000       1.33100000
C        0.13410000      -1.44780000       1.74790000
N        0.64030000      -0.41110000       1.24470000
H        1.22660000       1.94210000       0.09320000
H       -0.27560000       2.10630000      -0.84450000
H       -0.32610000       2.09650000       0.92770000
H       -1.05550000      -0.10460000       0.02540000
H        0.10980000      -0.10130000      -2.08170000
H        1.68790000      -0.08610000      -1.30720000
H        1.09770000      -2.27780000      -2.27100000
H        1.49130000      -2.37560000      -0.57290000
H       -1.44610000      -2.18470000      -1.38400000
H       -0.59040000      -3.70230000      -1.59110000
H       -1.77930000      -3.74330000       0.50890000
H       -0.03180000      -3.81220000       0.80080000
H        0.58950000      -1.91440000       2.62540000
