20
Properties=species:S:1:pos:R:3 gdb_113884=T pbc="F F F"
C       -0.19730000       1.42320000       0.05400000
C       -0.42420000      -0.03260000      -0.32820000
O       -0.02470000      -0.50600000      -1.37490000
N       -1.10920000      -0.77260000       0.60130000
C       -1.24320000      -2.19650000       0.49580000
C       -2.50670000      -2.83250000       1.01360000
C       -2.22780000      -2.81170000      -0.46890000
C       -3.06470000      -1.96840000      -1.39150000
O       -4.26650000      -2.68200000      -1.66580000
H       -0.24330000       2.03300000      -0.84940000
H       -0.92140000       1.79550000       0.78400000
H        0.80650000       1.53160000       0.47830000
H       -1.31270000      -0.35040000       1.49320000
H       -0.31380000      -2.74520000       0.63040000
H       -2.43000000      -3.76700000       1.55710000
H       -3.28330000      -2.16460000       1.37300000
H       -1.90400000      -3.74920000      -0.91030000
H       -3.27860000      -0.99880000      -0.91770000
H       -2.49740000      -1.76740000      -2.31080000
H       -4.73050000      -2.21590000      -2.36750000
