18
Properties=species:S:1:pos:R:3 gdb_93255=T pbc="F F F"
N       -0.08890000       1.48190000       0.05510000
C       -0.06680000       0.03070000      -0.05860000
C       -1.47610000      -0.55960000       0.00240000
C       -1.40270000      -2.06530000      -0.19500000
O       -2.71920000      -2.58910000      -0.16880000
C       -0.75350000      -2.35450000      -1.55030000
O        0.51620000      -1.71510000      -1.74490000
C        0.75760000      -0.46990000      -1.26370000
O        1.66730000       0.16880000      -1.72010000
H        0.85270000       1.82420000      -0.12230000
H       -0.65690000       1.86520000      -0.69740000
H        0.49170000      -0.35500000       0.80930000
H       -1.94290000      -0.31180000       0.95880000
H       -2.10610000      -0.13120000      -0.78890000
H       -0.78710000      -2.50540000       0.60580000
H       -2.66770000      -3.55020000      -0.14820000
H       -0.56250000      -3.42380000      -1.68180000
H       -1.44270000      -2.03120000      -2.34070000
