16
Properties=species:S:1:pos:R:3 gdb_57740=T pbc="F F F"
N        0.07870000       1.05410000       0.79830000
C        0.00610000      -0.10250000       0.06640000
N        1.22980000      -0.65290000      -0.28370000
N       -1.07260000      -0.65350000      -0.38260000
C       -2.31900000       0.07390000      -0.23100000
C       -3.32630000      -0.45030000      -1.24210000
O       -4.51670000      -0.43920000      -1.05640000
C       -2.86190000      -0.06550000       1.19450000
O       -2.45400000       0.59910000       2.12030000
H        0.98580000       1.39100000       1.07410000
H       -0.69730000       1.25890000       1.41690000
H        1.91410000      -0.71020000       0.45740000
H        1.11590000      -1.52520000      -0.78040000
H       -2.20480000       1.15770000      -0.42240000
H       -2.86680000      -0.85220000      -2.17000000
H       -3.62240000      -0.85390000       1.35030000
