17
Properties=species:S:1:pos:R:3 gdb_11942=T pbc="F F F"
C        0.03610000       1.53120000       0.04790000
C       -0.03280000       0.03370000       0.07610000
C       -1.31770000      -0.80900000      -0.02830000
C       -0.71380000      -1.84330000       0.97490000
C        0.55890000      -0.99750000       1.05610000
N        1.13590000      -0.74260000      -0.26880000
C        1.38700000      -0.76180000       2.24910000
O        1.12560000      -1.19800000       3.34610000
H        1.04240000       1.87940000       0.29090000
H       -0.21420000       1.90060000      -0.95420000
H       -0.67430000       1.97350000       0.75330000
H       -2.19650000      -0.30060000       0.37460000
H       -1.55350000      -1.16650000      -1.03640000
H       -1.24770000      -1.87630000       1.92550000
H       -0.57260000      -2.86680000       0.61370000
H        0.94810000      -1.50870000      -0.91420000
H        2.27970000      -0.12640000       2.06220000
