19
Properties=species:S:1:pos:R:3 gdb_88251=T pbc="F F F"
C       -0.24770000       1.49760000       0.14910000
C       -0.00430000       0.01120000       0.03800000
C        1.33560000      -0.52550000      -0.36880000
C        0.85360000      -0.72860000       1.06360000
C        1.48230000      -0.03260000       2.14720000
C        2.01800000       0.53900000       3.06440000
C        2.60490000       1.22780000       4.20430000
C        1.55550000       1.63640000       5.24090000
O        1.73600000       1.59270000       6.42710000
H        0.63500000       2.01280000       0.53780000
H       -0.48790000       1.92570000      -0.83000000
H       -1.08220000       1.71320000       0.82480000
H       -0.86180000      -0.56230000      -0.30380000
H        1.38670000      -1.40110000      -1.00630000
H        2.14050000       0.18690000      -0.51240000
H        0.52300000      -1.73430000       1.30750000
H        3.36940000       0.62890000       4.71070000
H        3.09740000       2.15600000       3.87430000
H        0.59870000       1.99400000       4.80150000
