15
Properties=species:S:1:pos:R:3 gdb_20405=T pbc="F F F"
C        0.02930000       1.44540000       0.09770000
C        1.51130000       1.89510000      -0.09860000
C        2.21110000       0.57200000       0.00650000
N        3.45630000       0.14010000       0.12620000
N        3.31770000      -1.20350000       0.08050000
C        2.01560000      -1.62940000      -0.06450000
C        1.27780000      -0.47120000      -0.11760000
N       -0.02350000       0.01470000      -0.32530000
H       -0.24230000       1.55020000       1.15820000
H       -0.67240000       2.04040000      -0.49270000
H        1.65650000       2.34370000      -1.08910000
H        1.81340000       2.63560000       0.64590000
H        4.13210000      -1.77850000       0.20510000
H        1.76730000      -2.67690000      -0.10630000
H       -0.76130000      -0.50300000       0.13450000
