16
Properties=species:S:1:pos:R:3 gdb_44994=T pbc="F F F"
O        0.00410000       0.08450000      -0.42910000
C        0.00460000       1.21440000      -0.02280000
C       -1.23170000       2.10430000       0.18610000
N       -0.82500000       3.30340000       0.91920000
C       -0.22120000       3.01030000       2.21750000
C        0.67800000       3.27260000       1.05160000
C        1.23990000       2.04180000       0.35840000
C        1.38500000       4.51560000       0.92670000
C        2.01550000       5.53350000       0.81920000
H       -1.62490000       2.39320000      -0.79650000
H       -2.02150000       1.55610000       0.70880000
H       -0.35450000       3.78270000       2.96800000
H       -0.26230000       1.98930000       2.59800000
H        1.92140000       1.45270000       0.97690000
H        1.77790000       2.31400000      -0.55630000
H        2.55860000       6.44130000       0.72600000
