22
Properties=species:S:1:pos:R:3 gdb_88684=T pbc="F F F"
C       -0.21900000       1.59630000      -0.04020000
C        0.00680000       0.10390000      -0.00710000
N        1.34810000      -0.39000000      -0.35270000
C        0.83280000      -0.60680000       1.01390000
C        1.56930000       0.10450000       2.10090000
O        0.94320000       0.15330000       3.39220000
C        2.19500000      -0.54640000       3.27060000
C        2.12960000      -2.04170000       3.49740000
C        3.36340000       0.14530000       3.94240000
H        0.66500000       2.14230000       0.29500000
H       -0.44490000       1.92440000      -1.06050000
H       -1.06230000       1.87460000       0.60050000
H       -0.83590000      -0.47780000      -0.38080000
H        1.29620000      -1.24910000      -0.89230000
H        0.49370000      -1.60690000       1.27070000
H        2.01000000       1.04900000       1.78050000
H        1.21870000      -2.47700000       3.08390000
H        2.99430000      -2.54100000       3.04710000
H        2.14290000      -2.25670000       4.57150000
H        3.32900000      -0.01290000       5.02610000
H        4.31570000      -0.25270000       3.57560000
H        3.33960000       1.22120000       3.75350000
