17
Properties=species:S:1:pos:R:3 gdb_67579=T pbc="F F F"
O       -0.05680000       1.37990000       0.09660000
C        0.01080000      -0.00900000       0.04220000
C        0.93000000      -0.76090000       1.00950000
O        0.22700000      -1.59380000       1.94840000
C        0.63010000      -2.14830000       0.67930000
C       -0.41240000      -1.98740000      -0.42270000
C       -1.33430000      -0.78340000      -0.03490000
C       -1.45350000      -0.41320000      -1.53600000
C        0.03100000      -0.79400000      -1.34330000
H        0.82140000       1.73990000      -0.06540000
H        1.89470000      -0.37580000       1.32750000
H        1.34120000      -2.96670000       0.71770000
H       -0.86420000      -2.86650000      -0.88010000
H       -2.10910000      -0.78760000       0.72950000
H       -2.05290000      -1.08470000      -2.15610000
H       -1.66390000       0.63370000      -1.75810000
H        0.82960000      -0.80360000      -2.08890000
