17
Properties=species:S:1:pos:R:3 gdb_47972=T pbc="F F F"
O       -0.07290000      -0.02070000       0.00850000
C        0.01620000       1.18630000       0.00650000
C        1.25610000       1.91550000       0.00040000
C        2.27950000       2.56080000      -0.00560000
C        3.50140000       3.30670000      -0.01330000
C        4.62820000       3.26570000      -1.10260000
C        5.12430000       4.27160000      -0.02470000
C        3.68550000       4.86160000      -0.00400000
C        4.65270000       3.24980000       1.04930000
H       -0.88690000       1.83080000       0.00940000
H        5.17280000       2.32290000      -1.19170000
H        4.36160000       3.67550000      -2.07970000
H        6.05960000       4.82860000      -0.03120000
H        3.35330000       5.38970000      -0.90100000
H        3.37400000       5.37620000       0.90820000
H        4.40860000       3.64510000       2.03810000
H        5.19890000       2.30590000       1.11200000
