17
Properties=species:S:1:pos:R:3 gdb_108400=T pbc="F F F"
O        0.08100000       1.39950000      -0.17210000
C        0.05840000       0.00450000       0.09330000
C       -1.33220000      -0.55160000       0.10850000
C       -2.38260000      -0.34230000       1.19920000
O       -2.88890000      -1.69780000       1.01950000
C       -1.89860000      -1.94570000       0.03720000
C       -2.05270000      -1.03220000      -1.16470000
C       -3.31250000      -0.51340000      -1.60670000
C       -4.36430000      -0.06120000      -1.97590000
H       -0.37840000       1.54390000      -1.00660000
H        0.67380000      -0.55740000      -0.62810000
H        0.52510000      -0.11350000       1.07780000
H       -1.94560000      -0.22750000       2.19680000
H       -3.15290000       0.41470000       1.02680000
H       -1.45050000      -2.93230000      -0.01000000
H       -1.34440000      -1.27450000      -1.95570000
H       -5.29890000       0.32330000      -2.30160000
