21
Properties=species:S:1:pos:R:3 gdb_109819=T pbc="F F F"
C        1.37100000       2.17340000      -0.52630000
C        1.85340000       0.82510000       0.00670000
N        1.65650000      -0.21680000      -0.99810000
C        1.83110000      -1.63320000      -0.67980000
C        2.21890000      -2.14230000       0.69400000
C        0.47880000      -1.08010000      -1.01050000
C       -0.63380000      -1.02730000       0.03380000
C       -1.63170000       0.00260000      -0.26100000
N       -2.41750000       0.81510000      -0.50190000
H        1.87760000       2.41330000      -1.46500000
H        0.29360000       2.16150000      -0.71430000
H        1.57940000       2.96690000       0.19830000
H        2.93000000       0.86960000       0.20880000
H        1.36680000       0.61680000       0.97260000
H        2.33270000      -2.17990000      -1.47920000
H        1.71630000      -1.62580000       1.51390000
H        1.98940000      -3.20990000       0.77840000
H        3.29710000      -2.02710000       0.84770000
H        0.08350000      -1.25490000      -2.01040000
H       -1.14390000      -1.99800000       0.05510000
H       -0.25210000      -0.85650000       1.04270000
