21
Properties=species:S:1:pos:R:3 gdb_63080=T pbc="F F F"
C       -0.13950000       1.57090000       0.05280000
C        0.02400000       0.06850000       0.05820000
O       -1.10960000      -0.59670000      -0.45540000
C        1.33350000      -0.64310000      -0.21920000
C        2.66440000       0.09870000      -0.09010000
C        2.70670000       0.49390000       1.37120000
C        1.63930000       0.05180000       2.03950000
C        0.69360000      -0.72180000       1.17600000
C        0.03890000      -1.95800000       1.75070000
H        0.68750000       2.08130000       0.54760000
H       -0.19970000       1.94470000      -0.97770000
H       -1.07060000       1.84260000       0.56030000
H       -1.15460000      -0.40690000      -1.39920000
H        1.26540000      -1.49550000      -0.88690000
H        3.51260000      -0.54470000      -0.36070000
H        2.72620000       0.97450000      -0.75130000
H        3.50800000       1.09130000       1.79220000
H        1.44970000       0.21220000       3.09580000
H       -0.56240000      -1.70720000       2.63290000
H       -0.62240000      -2.42420000       1.01960000
H        0.79380000      -2.68870000       2.06180000
