18
Properties=species:S:1:pos:R:3 gdb_22829=T pbc="F F F"
C        0.05140000       1.54270000      -0.07410000
C        0.12130000       0.03120000       0.04990000
O        0.74200000      -0.48050000      -1.13350000
C        0.88870000      -1.87180000      -1.09100000
O        1.76350000      -2.28580000      -0.07720000
C        1.28100000      -1.93750000       1.21330000
C        0.86720000      -0.48260000       1.26860000
N        1.05650000       0.31240000       2.24560000
O        1.69290000      -0.31080000       3.32930000
H        1.05730000       1.96520000      -0.12710000
H       -0.49150000       1.80510000      -0.98550000
H       -0.45890000       1.97390000       0.78860000
H       -0.90380000      -0.38350000       0.10110000
H       -0.10080000      -2.35310000      -0.95820000
H        1.33360000      -2.17820000      -2.03960000
H        0.41550000      -2.56930000       1.48130000
H        2.08120000      -2.13710000       1.92480000
H        1.81280000       0.42190000       3.94270000
