23
Properties=species:S:1:pos:R:3 gdb_89741=T pbc="F F F"
C       -0.84330000       1.10620000      -0.05530000
C        0.10640000      -0.08190000      -0.07530000
C        1.48360000       0.09730000      -0.79280000
C        2.16740000      -0.55800000       0.41610000
C        3.08820000      -1.74390000       0.36240000
C        3.58350000      -0.41170000       0.88190000
C        0.87630000      -0.45230000       1.21200000
C        0.71680000       0.19540000       2.55900000
C        0.41610000      -1.27550000       2.37500000
H       -0.34510000       2.00380000       0.32680000
H       -1.20930000       1.32880000      -1.06370000
H       -1.71830000       0.91400000       0.57650000
H       -0.41300000      -0.96360000      -0.46860000
H        1.60180000      -0.40490000      -1.75680000
H        1.75050000       1.15310000      -0.91130000
H        2.93580000      -2.54480000       1.07950000
H        3.43610000      -2.07750000      -0.61060000
H        4.26910000       0.16050000       0.26440000
H        3.76810000      -0.31900000       1.94830000
H        1.61700000       0.46910000       3.10070000
H       -0.11680000       0.87340000       2.71240000
H       -0.62230000      -1.59320000       2.39810000
H        1.10690000      -1.99710000       2.80160000
