11
Properties=species:S:1:pos:R:3 gdb_2733=T pbc="F F F"
N       -0.01870000       1.23250000      -0.22980000
C       -0.00290000       0.00820000       0.00590000
O        1.01580000      -0.85950000       0.32890000
C        0.10240000      -1.98850000       0.45280000
C       -1.08240000      -1.07960000       0.02590000
C       -2.17930000      -0.92000000       0.96280000
N       -3.04590000      -0.81570000       1.71940000
H        0.90850000       1.65300000      -0.15820000
H        0.36080000      -2.78780000      -0.24340000
H        0.06290000      -2.35620000       1.47920000
H       -1.46900000      -1.29780000      -0.97260000
