19
Properties=species:S:1:pos:R:3 gdb_47732=T pbc="F F F"
O        0.06760000       0.02900000       0.34690000
C        0.02000000       1.21480000       0.09090000
C       -1.30520000       1.95390000      -0.10220000
N       -1.27310000       3.08980000      -1.02050000
C       -0.14820000       3.98750000      -0.75120000
C        1.21590000       3.29130000      -0.86850000
C        1.27260000       2.04860000       0.00420000
C        2.10260000       1.99950000       1.25720000
N        2.53950000       1.31250000       0.04670000
H       -2.06340000       1.23050000      -0.41320000
H       -1.60610000       2.31950000       0.89200000
H       -1.20930000       2.74900000      -1.97540000
H       -0.20300000       4.83490000      -1.44180000
H       -0.28010000       4.39240000       0.26120000
H        1.37780000       2.99470000      -1.91360000
H        2.03510000       3.97050000      -0.60760000
H        2.67680000       2.88170000       1.52920000
H        1.73360000       1.40580000       2.08930000
H        2.30560000       0.32200000       0.13300000
