20
Properties=species:S:1:pos:R:3 gdb_94279=T pbc="F F F"
O        0.53460000       0.88270000      -0.67070000
C        0.13730000      -0.23940000       0.08080000
C        0.04350000      -0.14530000       1.62600000
C       -1.20700000      -1.06480000       1.56870000
C       -1.32940000      -0.73810000       0.06460000
C       -2.51200000       0.02410000      -0.58150000
C       -1.95760000      -0.54580000      -1.90660000
N       -1.84260000      -1.76140000      -0.96150000
C       -3.24050000      -1.33130000      -0.47620000
H       -0.01550000       1.62800000      -0.40650000
H        0.80300000      -1.05350000      -0.22430000
H        0.90560000      -0.47980000       2.20560000
H       -0.21810000       0.87100000       1.94020000
H       -0.95920000      -2.11850000       1.72500000
H       -2.04700000      -0.80150000       2.21490000
H       -2.89190000       1.02970000      -0.36050000
H       -2.66730000      -0.70900000      -2.72250000
H       -1.00030000      -0.17030000      -2.26670000
H       -3.50120000      -1.71350000       0.51320000
H       -4.03120000      -1.53970000      -1.20250000
