21
Properties=species:S:1:pos:R:3 gdb_110725=T pbc="F F F"
C       -0.03690000       1.49740000      -0.21950000
C        0.00050000       0.03580000       0.24230000
C       -1.35120000      -0.63540000       0.14130000
C       -1.91150000      -1.28570000      -1.13760000
C       -0.94100000      -1.74420000      -2.16720000
C       -0.11970000      -2.68990000      -1.69800000
C       -0.43140000      -3.04620000      -0.26180000
C       -1.58820000      -2.10990000       0.11170000
O       -2.56520000      -2.58630000       0.98700000
H        0.94440000       1.97130000      -0.11860000
H       -0.33860000       1.56700000      -1.27000000
H       -0.75250000       2.08200000       0.36920000
H        0.73910000      -0.51250000      -0.35090000
H        0.34120000      -0.01310000       1.28490000
H       -2.13620000      -0.12660000       0.69800000
H       -2.93170000      -1.03880000      -1.41180000
H       -0.91170000      -1.33710000      -3.17210000
H        0.68700000      -3.15530000      -2.25260000
H       -0.74290000      -4.09620000      -0.15860000
H        0.43300000      -2.92100000       0.40250000
H       -2.99330000      -3.34310000       0.57060000
