14
Properties=species:S:1:pos:R:3 gdb_16788=T pbc="F F F"
O        0.06770000      -0.01150000      -0.02240000
C        0.01420000       1.19100000      -0.03850000
C       -1.26100000       2.03770000      -0.13170000
C       -0.79320000       3.36410000      -0.74310000
O       -1.47360000       4.13650000      -1.36720000
C        0.68510000       3.49170000      -0.51490000
C        1.14090000       3.26660000       0.90590000
C        1.19630000       2.11610000      -0.06890000
H       -2.03060000       1.55560000      -0.73680000
H       -1.68730000       2.20260000       0.86530000
H        1.25380000       4.14760000      -1.16170000
H        2.09190000       3.70860000       1.17920000
H        0.40900000       3.25400000       1.70580000
H        2.15610000       1.71940000      -0.37440000
