19
Properties=species:S:1:pos:R:3 gdb_38286=T pbc="F F F"
C       -0.10680000       1.50390000      -0.13560000
C        1.44390000       1.45910000      -0.00290000
C        1.20510000       0.26000000       0.97930000
C        0.01660000      -0.06610000       0.01560000
C        0.71480000      -0.31030000      -1.28920000
C        0.47080000      -0.61250000      -2.55800000
C        1.46300000       0.17180000      -3.40790000
O        1.97740000       1.18910000      -2.52940000
C        1.90170000       0.63740000      -1.22710000
H       -0.58470000       1.96090000       0.73450000
H       -0.53550000       1.88750000      -1.06330000
H        2.03010000       2.32880000       0.28960000
H        1.99840000      -0.48540000       1.08850000
H        0.86380000       0.59200000       1.96180000
H       -0.83070000      -0.68330000       0.30820000
H       -0.34870000      -1.18330000      -2.97490000
H        2.28880000      -0.44760000      -3.79870000
H        0.98380000       0.66350000      -4.26260000
H        2.85280000       0.12890000      -0.99030000
