21
Properties=species:S:1:pos:R:3 gdb_74849=T pbc="F F F"
C        0.05850000       1.48930000       0.02890000
C       -0.00890000      -0.00590000       0.00680000
C       -0.08720000      -0.78650000      -1.08060000
C       -0.03930000      -2.23760000      -0.74450000
C        1.24380000      -2.71340000      -0.08710000
C        0.07860000      -2.28320000       0.76980000
C        0.03640000      -0.84930000       1.24900000
C        0.76030000      -0.41630000       2.50780000
C       -0.74260000      -0.47920000       2.49670000
H        1.00820000       1.84640000       0.44700000
H       -0.03590000       1.90030000      -0.97960000
H       -0.73920000       1.92400000       0.64420000
H       -0.13720000      -0.41880000      -2.09990000
H       -0.63600000      -2.95050000      -1.30340000
H        1.45850000      -3.77690000      -0.11890000
H        2.11490000      -2.06930000      -0.15040000
H       -0.43570000      -3.03990000       1.35200000
H        1.30630000      -1.17800000       3.05430000
H        1.22940000       0.56190000       2.52170000
H       -1.29650000       0.45340000       2.50310000
H       -1.22800000      -1.28800000       3.03360000
