22
Properties=species:S:1:pos:R:3 gdb_111303=T pbc="F F F"
C       -0.14130000       1.56340000      -0.20450000
C       -0.00970000       0.05100000      -0.03740000
C       -1.36570000      -0.59780000       0.24180000
C        0.73930000      -0.68690000      -1.16670000
N        2.12440000      -0.16430000      -1.20450000
C        1.75460000      -1.21970000      -0.22400000
C        1.10250000      -0.49730000       0.96570000
C        1.97590000       0.46990000       1.75270000
O        2.94830000      -0.21980000       2.53350000
H        0.81030000       2.01320000      -0.49460000
H       -0.87710000       1.79690000      -0.98310000
H       -0.48470000       2.03830000       0.72160000
H       -2.08330000      -0.36450000      -0.55370000
H       -1.28190000      -1.68800000       0.30870000
H       -1.78500000      -0.23410000       1.18640000
H        0.29820000      -1.14620000      -2.04480000
H        2.59790000      -0.62570000      -1.98050000
H        2.26140000      -2.17760000      -0.22690000
H        0.65830000      -1.21400000       1.66290000
H        2.45120000       1.18870000       1.07420000
H        1.36670000       1.03360000       2.46750000
H        3.58750000      -0.59810000       1.92170000
