15
Properties=species:S:1:pos:R:3 gdb_124110=T pbc="F F F"
C       -0.12420000       1.48230000      -0.04020000
C       -0.04190000       0.03240000      -0.02240000
C        0.01910000      -1.17250000      -0.00770000
C        0.10420000      -2.57300000       0.00920000
C        1.17130000      -3.43330000       0.00760000
C        2.63450000      -3.16380000      -0.01310000
N        0.63890000      -4.70120000       0.03010000
N       -0.62090000      -4.66450000       0.04460000
O       -1.02460000      -3.30790000       0.03200000
H        0.87290000       1.93300000       0.00010000
H       -0.61760000       1.83680000      -0.95170000
H       -0.69670000       1.85340000       0.81680000
H        3.12460000      -3.58740000       0.86930000
H        3.10390000      -3.61090000      -0.89510000
H        2.82050000      -2.08780000      -0.02960000
