23
Properties=species:S:1:pos:R:3 gdb_63425=T pbc="F F F"
C        0.08510000       1.53460000       0.18890000
C        0.00050000       0.02000000       0.02850000
C       -1.42850000      -0.41250000      -0.31000000
C        1.05210000      -0.63000000      -0.92960000
C        1.32000000      -1.72520000       0.13760000
C        2.77570000      -2.13710000       0.38700000
C        2.92040000      -3.06990000       1.49910000
C        3.00660000      -3.83850000       2.41960000
C        0.61290000      -0.83000000       1.18920000
H        1.10550000       1.85280000       0.42760000
H       -0.21900000       2.04910000      -0.73070000
H       -0.57110000       1.88350000       0.99530000
H       -1.76500000       0.04540000      -1.24740000
H       -1.50780000      -1.49890000      -0.42400000
H       -2.12610000      -0.11040000       0.47970000
H        0.69910000      -0.95750000      -1.91180000
H        1.92390000       0.01780000      -1.07350000
H        0.73060000      -2.62380000      -0.06590000
H        3.19000000      -2.58730000      -0.52540000
H        3.37710000      -1.23870000       0.58270000
H        3.09580000      -4.51690000       3.23120000
H        1.33380000      -0.25360000       1.77860000
H       -0.08510000      -1.31470000       1.87670000
