17
Properties=species:S:1:pos:R:3 gdb_18763=T pbc="F F F"
C       -0.02760000       1.30650000      -0.38160000
C        1.41200000       1.57210000       0.14280000
C        1.28240000       0.23350000       0.86020000
C        2.23610000      -0.90420000       1.19820000
O        1.42040000      -1.27290000       2.34270000
C        0.57400000      -0.11170000       2.19430000
C       -0.70760000      -0.37670000       1.37190000
N        0.03050000      -0.11990000       0.08790000
H       -0.79760000       1.90120000       0.12520000
H       -0.17630000       1.39390000      -1.46120000
H        2.16600000       1.55190000      -0.64880000
H        1.57590000       2.45730000       0.76090000
H        2.30770000      -1.70510000       0.45400000
H        3.24150000      -0.59130000       1.51170000
H        0.52870000       0.48990000       3.10680000
H       -1.09370000      -1.39680000       1.45010000
H       -1.52280000       0.33420000       1.55410000
