19
Properties=species:S:1:pos:R:3 gdb_13903=T pbc="F F F"
C       -0.13320000       1.29920000       0.67950000
C        0.12410000      -0.08380000       0.12050000
C        0.59120000      -0.33860000      -1.28210000
C        0.85410000       0.75850000      -2.29130000
C        1.53380000      -0.63770000      -0.11210000
C        2.75350000       0.18530000       0.14780000
N        3.81950000      -0.53250000       0.62440000
O        2.84560000       1.38780000      -0.04960000
H        0.63160000       2.01130000       0.37170000
H       -1.11300000       1.66330000       0.35080000
H       -0.14140000       1.27260000       1.77470000
H       -0.55640000      -0.83690000       0.51200000
H        0.19130000      -1.24530000      -1.73090000
H        1.36690000       1.60880000      -1.84370000
H        1.48230000       0.38330000      -3.10650000
H       -0.08920000       1.10070000      -2.73170000
H        1.65790000      -1.69220000       0.11710000
H        3.73130000      -1.48610000       0.92720000
H        4.63630000      -0.01430000       0.90430000
