19
Properties=species:S:1:pos:R:3 gdb_82334=T pbc="F F F"
C       -0.03360000       1.59450000       0.02470000
C        0.07120000       0.07640000      -0.01060000
C        0.84640000      -0.48700000      -1.25360000
C        1.39250000      -1.84800000      -0.74800000
C        1.54890000      -1.62580000       0.74850000
C        2.19390000      -0.36580000       1.20130000
N        0.72700000      -0.48350000       1.18360000
C        0.01770000      -0.58530000      -2.44570000
N       -0.65890000      -0.65720000      -3.38070000
H        0.95780000       2.05930000       0.04760000
H       -0.56400000       1.96310000      -0.85820000
H       -0.58000000       1.91560000       0.91510000
H       -0.93700000      -0.35350000      -0.02630000
H        1.67950000       0.18280000      -1.49210000
H        0.65980000      -2.63970000      -0.93110000
H        2.32120000      -2.13310000      -1.24940000
H        1.55160000      -2.50010000       1.39280000
H        2.62430000      -0.30670000       2.19610000
H        2.69250000       0.26070000       0.46580000
