19
Properties=species:S:1:pos:R:3 gdb_37804=T pbc="F F F"
C       -0.01040000       1.52570000       0.02650000
C        1.44250000       1.95550000      -0.05320000
C        2.41320000       1.28360000       0.90940000
C        1.96140000       0.60080000       2.19560000
C        1.18700000      -0.70840000       2.00880000
O       -0.03760000      -0.58410000       1.29970000
C        0.05950000      -0.02080000       0.00650000
O        1.27800000      -0.35210000      -0.63230000
C        2.18380000       0.71900000      -0.47550000
H       -0.54190000       1.86170000       0.92000000
H       -0.55340000       1.88880000      -0.85220000
H        1.68060000       2.93600000      -0.44810000
H        3.35470000       1.81870000       1.00440000
H        2.84940000       0.35870000       2.79230000
H        1.36440000       1.29750000       2.79800000
H        1.83280000      -1.44460000       1.51470000
H        0.90370000      -1.10910000       2.98640000
H       -0.75260000      -0.47820000      -0.56500000
H        2.97270000       0.68770000      -1.21710000
