19
Properties=species:S:1:pos:R:3 gdb_84796=T pbc="F F F"
C       -0.05050000       1.61250000      -0.01610000
C        0.01210000       0.07860000       0.04090000
C        0.73220000      -0.53000000      -1.13380000
C        1.80750000      -1.21720000      -0.76380000
C        1.96540000      -1.21680000       0.73280000
N        0.81420000      -0.43090000       1.16660000
C        0.36640000      -0.30230000       2.45420000
N        1.19430000      -0.84440000       3.43100000
O       -0.66270000       0.29200000       2.73930000
H        0.95460000       2.03670000      -0.10310000
H       -0.63730000       1.93280000      -0.88380000
H       -0.52530000       1.99130000       0.88990000
H       -1.01640000      -0.29940000       0.12760000
H        0.39290000      -0.37330000      -2.15020000
H        2.50300000      -1.73130000      -1.41470000
H        1.93960000      -2.24400000       1.13600000
H        2.92000000      -0.77310000       1.05600000
H        1.77590000      -1.63460000       3.20100000
H        0.72980000      -0.91240000       4.32340000
