24
Properties=species:S:1:pos:R:3 gdb_118756=T pbc="F F F"
C       -0.00370000       1.61740000       0.05470000
C        0.00350000       0.08620000       0.08160000
C       -1.39390000      -0.52190000      -0.09330000
C       -1.41570000      -2.04770000      -0.03830000
O       -0.65420000      -2.62430000      -1.08730000
C       -1.17360000      -2.72590000       1.34600000
N       -2.32590000      -3.60700000       1.09240000
C       -3.22470000      -3.90100000       2.18210000
C       -2.79910000      -2.74090000      -0.00320000
H        1.00520000       2.02400000       0.17480000
H       -0.40450000       1.99260000      -0.89320000
H       -0.62570000       2.02370000       0.85980000
H        0.66300000      -0.28030000      -0.71590000
H        0.43800000      -0.25980000       1.02940000
H       -2.06080000      -0.12860000       0.68400000
H       -1.81200000      -0.20770000      -1.05870000
H        0.27500000      -2.43360000      -0.92290000
H       -0.21850000      -3.24750000       1.48330000
H       -1.32440000      -2.02850000       2.18750000
H       -3.63630000      -2.99420000       2.66940000
H       -4.06710000      -4.49970000       1.81890000
H       -2.70430000      -4.48730000       2.94720000
H       -3.60560000      -2.05010000       0.29300000
H       -3.08800000      -3.26900000      -0.91750000
