22
Properties=species:S:1:pos:R:3 gdb_63438=T pbc="F F F"
C       -0.03660000       1.53380000      -0.04110000
C       -0.10180000       0.00600000      -0.03790000
C       -1.49460000      -0.50030000      -0.39010000
C        1.09090000      -0.63370000      -0.81150000
N        1.82160000      -0.75360000       0.46460000
C        2.66230000      -1.90190000       0.69620000
C        3.50070000      -1.72730000       1.95300000
O        3.83220000      -2.62350000       2.68360000
C        0.56510000      -0.60900000       1.22850000
H        0.96860000       1.88070000       0.21580000
H       -0.29440000       1.93450000      -1.02790000
H       -0.73980000       1.95760000       0.68470000
H       -1.79930000      -0.15220000      -1.38390000
H       -1.53880000      -1.59400000      -0.38990000
H       -2.23810000      -0.13460000       0.32760000
H        0.82120000      -1.60650000      -1.25370000
H        1.59420000      -0.02520000      -1.57220000
H        2.12230000      -2.86410000       0.75820000
H        3.37490000      -1.98230000      -0.13910000
H        3.80200000      -0.67100000       2.13660000
H        0.63760000       0.01810000       2.12450000
H        0.11570000      -1.57660000       1.50690000
