17
Properties=species:S:1:pos:R:3 gdb_126773=T pbc="F F F"
C        0.23530000       1.58380000      -0.02970000
C        0.00370000       0.08210000       0.14280000
N        0.67330000      -0.46100000       1.30350000
N        2.06390000      -0.53010000       1.36250000
C        2.30780000      -1.03070000       2.53450000
N        3.56540000      -1.19910000       3.08920000
N        1.15820000      -1.32180000       3.22390000
C        0.05800000      -0.93530000       2.43500000
O       -1.12280000      -1.01480000       2.70720000
H        1.30360000       1.79910000      -0.11620000
H       -0.26410000       1.94060000      -0.93570000
H       -0.16180000       2.13930000       0.82500000
H       -1.05670000      -0.13960000       0.28880000
H        0.34740000      -0.46140000      -0.74480000
H        4.28460000      -0.98580000       2.40880000
H        3.71610000      -2.11890000       3.48650000
H        1.07290000      -1.60350000       4.18480000
