17
Properties=species:S:1:pos:R:3 gdb_56800=T pbc="F F F"
O        1.47370000       1.31340000      -0.47740000
C        0.50660000       0.34390000      -0.05920000
C        0.15930000      -0.58110000      -1.14260000
C       -0.09340000      -1.33280000      -2.04560000
C        0.96140000      -0.36180000       1.19130000
C        1.12240000      -1.66100000       1.42230000
C        1.60170000      -1.87330000       2.82850000
O        1.73940000      -0.56680000       3.38160000
C        1.32630000       0.41270000       2.43440000
H        2.25870000       0.82690000      -0.75580000
H       -0.37850000       0.94940000       0.18110000
H       -0.33070000      -1.98760000      -2.84780000
H        0.92940000      -2.46430000       0.72360000
H        0.88980000      -2.46610000       3.42600000
H        2.56910000      -2.39830000       2.86960000
H        2.13840000       1.13070000       2.25420000
H        0.46910000       0.98570000       2.82650000
