25
Properties=species:S:1:pos:R:3 gdb_118899=T pbc="F F F"
C        0.14420000       1.64890000      -0.22160000
C        0.09910000       0.12470000      -0.07530000
C       -1.33390000      -0.42370000      -0.07270000
C       -1.48400000      -1.94090000       0.15090000
C       -0.76560000      -2.74510000      -0.94780000
C       -0.96380000      -2.40560000       1.55150000
C       -1.98730000      -3.41460000       2.00860000
C       -3.08510000      -3.38790000       1.25590000
C       -2.99230000      -2.35550000       0.16170000
H        1.17410000       2.01980000      -0.22750000
H       -0.33070000       1.97090000      -1.15520000
H       -0.38300000       2.14270000       0.60240000
H        0.67310000      -0.33020000      -0.89120000
H        0.60680000      -0.16600000       0.85310000
H       -1.90630000       0.09650000       0.70830000
H       -1.81660000      -0.15820000      -1.02440000
H        0.31690000      -2.58580000      -0.92900000
H       -0.94400000      -3.81730000      -0.81370000
H       -1.13060000      -2.46550000      -1.94270000
H        0.04920000      -2.82260000       1.49650000
H       -0.90810000      -1.56700000       2.26100000
H       -1.83360000      -4.05290000       2.87220000
H       -3.96660000      -4.00130000       1.40940000
H       -3.64310000      -1.49720000       0.38360000
H       -3.31550000      -2.73590000      -0.81550000
