22
Properties=species:S:1:pos:R:3 gdb_110564=T pbc="F F F"
C       -0.67680000       1.24760000       0.06330000
C        0.75360000       0.77170000      -0.18820000
N        1.21120000      -0.06940000       0.91580000
C        2.52690000      -0.76250000       0.79780000
C        2.08830000      -1.83940000       1.83460000
C        2.56460000      -3.00530000       0.95960000
C        2.02610000      -1.99150000      -0.07700000
C        2.02640000      -2.20780000      -1.56950000
C        0.87180000      -1.52620000       0.91400000
H       -0.74260000       1.76450000       1.02480000
H       -1.00700000       1.92890000      -0.72700000
H       -1.37440000       0.40320000       0.08780000
H        0.80820000       0.28370000      -1.17400000
H        1.42610000       1.63830000      -0.23030000
H        3.48030000      -0.23180000       0.73960000
H        2.10420000      -1.71080000       2.91580000
H        3.64260000      -3.19640000       0.93780000
H        2.01430000      -3.94760000       1.05100000
H        1.43210000      -3.09260000      -1.82660000
H        1.62350000      -1.36050000      -2.12810000
H        3.04780000      -2.38700000      -1.92600000
H       -0.14670000      -1.91140000       0.99700000
