13
Properties=species:S:1:pos:R:3 gdb_1259=T pbc="F F F"
N       -0.00870000       1.38210000       0.15480000
C       -0.03940000       0.02090000       0.12320000
N       -1.02410000      -0.64220000      -0.33790000
H       -2.90330000      -0.87630000      -0.09550000
C       -0.99470000      -2.08810000      -0.24970000
C       -2.36540000      -2.63540000       0.17790000
O       -3.33990000      -1.71420000       0.16360000
O       -2.55080000      -3.78420000       0.47310000
H        0.87270000       1.84680000       0.28580000
H       -0.70810000       1.87700000      -0.37660000
H        0.84920000      -0.45030000       0.56210000
H       -0.78840000      -2.52450000      -1.23680000
H       -0.23950000      -2.48640000       0.44180000
