22
Properties=species:S:1:pos:R:3 gdb_120169=T pbc="F F F"
C        0.75280000       1.28140000       0.00970000
O        0.88250000      -0.09910000      -0.22990000
C       -0.06920000      -0.58990000      -1.15510000
C        0.14380000      -2.08940000      -1.23700000
N       -0.70950000      -2.90070000      -2.23370000
C        0.29630000      -2.43410000      -3.30390000
C        1.23610000      -2.76120000      -2.11640000
C        2.73570000      -2.64530000      -2.01380000
C        0.32770000      -4.00910000      -1.97310000
H        0.89800000       1.87290000      -0.90850000
H       -0.23640000       1.53260000       0.42410000
H        1.52120000       1.56180000       0.73450000
H       -1.09610000      -0.39090000      -0.80330000
H        0.04460000      -0.07750000      -2.12170000
H        0.06160000      -2.49040000      -0.22020000
H        0.33280000      -3.09640000      -4.17400000
H        0.17140000      -1.39810000      -3.62220000
H        3.05340000      -1.60250000      -2.11420000
H        3.08830000      -3.00650000      -1.04190000
H        3.23320000      -3.23150000      -2.79420000
H        0.23520000      -4.47040000      -0.98520000
H        0.35980000      -4.76300000      -2.76480000
