16
Properties=species:S:1:pos:R:3 gdb_12600=T pbc="F F F"
C       -0.44190000       1.50890000       0.02430000
C        0.14730000       0.10530000       0.00340000
C        1.03620000      -0.24220000      -1.19010000
O        0.98070000       0.26920000      -2.27750000
C        2.03660000      -1.32820000      -0.76740000
C        2.00910000      -1.36360000       0.77360000
C        0.99570000      -0.29500000       1.20970000
O        0.90420000       0.16880000       2.31570000
H        0.35230000       2.26000000       0.05480000
H       -1.03720000       1.68440000      -0.87430000
H       -1.06830000       1.64490000       0.90840000
H       -0.66380000      -0.64520000      -0.02690000
H        1.72680000      -2.27810000      -1.21650000
H        3.01750000      -1.09070000      -1.18630000
H        1.68150000      -2.33200000       1.16690000
H        2.97480000      -1.14910000       1.23790000
