22
Properties=species:S:1:pos:R:3 gdb_57655=T pbc="F F F"
C        0.43000000       1.60450000       0.41930000
C        0.13060000       0.11860000       0.14200000
C        0.68530000      -0.74220000       1.28850000
C       -1.40410000      -0.08620000      -0.02470000
C       -2.19710000       0.17820000       1.23350000
O       -2.79900000       1.19880000       1.45910000
N        0.71530000      -0.44020000      -1.09650000
C        0.72490000       0.31350000      -2.34070000
C        1.99430000       0.02600000      -1.61240000
H        1.49120000       1.76620000       0.62900000
H        0.13790000       2.24930000      -0.41490000
H       -0.13340000       1.94480000       1.29210000
H        0.30920000      -0.41080000       2.26120000
H        0.42140000      -1.79350000       1.14530000
H        1.77710000      -0.66990000       1.31190000
H       -1.77290000       0.58330000      -0.80770000
H       -1.56440000      -1.12370000      -0.33870000
H       -2.19420000      -0.64990000       1.97840000
H        0.45320000      -0.24900000      -3.23010000
H        0.38510000       1.34670000      -2.34130000
H        2.48540000       0.87200000      -1.13760000
H        2.67050000      -0.75150000      -1.95800000
