21
Properties=species:S:1:pos:R:3 gdb_114642=T pbc="F F F"
C       -0.01810000       1.55340000       0.01340000
C       -0.00330000       0.02240000       0.06460000
C       -1.40090000      -0.59940000      -0.00570000
C       -2.12140000      -0.45300000      -1.40270000
C       -2.38520000      -1.93810000      -1.73530000
C       -2.87150000      -2.48670000      -0.35160000
C       -1.42050000      -2.14380000       0.12550000
C       -1.04280000      -2.56370000      -1.30830000
O       -0.18800000      -3.21900000      -1.82620000
H        0.99610000       1.96000000       0.06970000
H       -0.47110000       1.92150000      -0.91320000
H       -0.59120000       1.97000000       0.84940000
H        0.61170000      -0.37200000      -0.75490000
H        0.48410000      -0.30370000       0.99250000
H       -2.02110000      -0.16280000       0.78610000
H       -3.05090000       0.11890000      -1.33890000
H       -1.48110000       0.02780000      -2.14840000
H       -2.87170000      -2.18480000      -2.67670000
H       -3.68000000      -1.93130000       0.13050000
H       -3.08580000      -3.55670000      -0.35880000
H       -0.96460000      -2.59010000       1.00740000
