20
Properties=species:S:1:pos:R:3 gdb_78248=T pbc="F F F"
C       -0.03250000       1.55830000       0.07090000
C        0.05700000       0.03430000       0.05120000
C        0.72520000      -0.54210000      -1.21660000
C        1.81890000      -1.17900000      -0.39290000
C        1.19110000      -0.64330000       0.92490000
C        2.08860000       0.31120000       1.66160000
O        2.25440000       0.30500000       2.85610000
N        0.91100000      -1.97170000      -1.18230000
C       -0.05310000      -2.90160000      -0.61500000
H        0.90540000       2.03330000      -0.23330000
H       -0.80730000       1.89250000      -0.62710000
H       -0.29470000       1.93270000       1.06540000
H       -0.93350000      -0.38150000       0.26460000
H        0.77620000      -0.03330000      -2.17470000
H        2.88430000      -1.26660000      -0.58110000
H        0.85070000      -1.39760000       1.63900000
H        2.63070000       1.04240000       1.02000000
H       -0.54800000      -2.56300000       0.30560000
H       -0.82600000      -3.10030000      -1.36360000
H        0.45860000      -3.84390000      -0.39770000
