21
Properties=species:S:1:pos:R:3 gdb_93006=T pbc="F F F"
C        0.10210000       1.56220000       0.02510000
C        0.03360000       0.03010000       0.01690000
C        0.54240000      -0.54310000      -1.32510000
C        0.75910000      -2.03410000      -1.29100000
C        1.07200000      -2.68220000      -0.16820000
C        1.23800000      -1.98980000       1.13590000
O        1.02340000      -2.77230000       2.28130000
C        2.24000000      -0.84720000       1.23550000
C        0.75090000      -0.57150000       1.21490000
H        1.14080000       1.90520000      -0.03990000
H       -0.44700000       1.98790000      -0.82170000
H       -0.32730000       1.97380000       0.94440000
H       -1.02070000      -0.26620000       0.11090000
H       -0.16870000      -0.28270000      -2.11760000
H        1.48010000      -0.03780000      -1.60350000
H        0.67480000      -2.57910000      -2.22700000
H        1.22370000      -3.75880000      -0.16550000
H        1.78580000      -3.35170000       2.38960000
H        2.74670000      -0.72950000       2.18750000
H        2.84210000      -0.61980000       0.36230000
H        0.32780000      -0.30460000       2.17920000
