17
Properties=species:S:1:pos:R:3 gdb_48778=T pbc="F F F"
O        0.04450000      -0.08400000      -0.20590000
C        0.11710000       1.02870000       0.25000000
C        1.29870000       1.92410000       0.09370000
C        2.23310000       1.72670000      -1.06160000
N        2.65900000       1.30090000       0.26080000
C        3.49280000       2.26120000       1.02720000
C        2.64820000       3.48620000       1.35860000
N        2.21810000       4.26000000       0.17820000
C        1.29920000       3.26970000       0.77660000
H       -0.73360000       1.47270000       0.81790000
H        2.01650000       0.90470000      -1.73830000
H        2.65550000       2.62730000      -1.49540000
H        3.79910000       1.76540000       1.95400000
H        4.39410000       2.51310000       0.45980000
H        2.80020000       4.00130000       2.30250000
H        1.94370000       5.19680000       0.46510000
H        0.39070000       3.60750000       1.26430000
