22
Properties=species:S:1:pos:R:3 gdb_97974=T pbc="F F F"
C       -0.02750000       1.46290000       0.46830000
C       -0.03740000       0.13970000      -0.31890000
C       -1.36090000      -0.47120000      -0.39530000
C       -2.46700000      -0.94590000      -0.45010000
C       -3.79150000      -1.55380000      -0.50000000
C       -3.84850000      -2.91090000       0.22270000
N       -5.20030000      -3.45200000       0.16730000
C       -5.50980000      -4.29990000      -0.98100000
C       -5.32680000      -4.88950000       0.37360000
H        0.98260000       1.88240000       0.49990000
H       -0.69130000       2.19630000       0.00240000
H       -0.36830000       1.30570000       1.49530000
H        0.34370000       0.31560000      -1.33330000
H        0.66400000      -0.56590000       0.14540000
H       -4.53670000      -0.88880000      -0.04690000
H       -4.10240000      -1.69330000      -1.54370000
H       -3.10240000      -3.59400000      -0.22060000
H       -3.57660000      -2.77360000       1.27490000
H       -6.50290000      -4.18250000      -1.40460000
H       -4.72060000      -4.48050000      -1.71000000
H       -4.41610000      -5.46170000       0.54530000
H       -6.18360000      -5.21030000       0.95910000
