17
Properties=species:S:1:pos:R:3 gdb_67980=T pbc="F F F"
C        0.03160000       1.48460000      -0.10090000
C        0.03080000      -0.00950000       0.01110000
O        0.43650000      -0.65240000      -1.20700000
C        0.37030000      -1.99640000      -0.90200000
N        0.63890000      -2.95830000      -1.66920000
C       -0.08600000      -2.00720000       0.52160000
C        0.62570000      -0.79450000       1.22200000
N       -0.60250000      -0.42930000       2.01660000
C       -1.12300000      -0.83560000       0.66120000
H        1.03240000       1.85130000      -0.34710000
H       -0.65400000       1.81160000      -0.88820000
H       -0.28410000       1.91450000       0.85150000
H        0.92570000      -2.61560000      -2.58870000
H       -0.22820000      -2.95470000       1.03470000
H        1.63470000      -0.75270000       1.63470000
H       -0.79970000      -1.17670000       2.68660000
H       -2.18460000      -0.84250000       0.41000000
