16
Properties=species:S:1:pos:R:3 gdb_23163=T pbc="F F F"
O       -0.08200000       1.32410000       0.41670000
N       -0.02440000      -0.07250000       0.52760000
C       -1.04840000      -0.61170000       0.01350000
C       -2.32620000      -0.14070000      -0.64170000
C       -2.84720000      -1.60900000      -0.50130000
O       -3.29170000      -2.26300000      -1.66300000
C       -1.41910000      -2.08520000      -0.05500000
C       -0.65830000      -2.84840000      -1.12910000
O       -0.13900000      -3.91590000      -0.94100000
H        0.73150000       1.59790000       0.85490000
H       -2.87510000       0.65240000      -0.12800000
H       -2.18580000       0.14400000      -1.69060000
H       -3.56400000      -1.71090000       0.32270000
H       -4.16710000      -1.93340000      -1.88930000
H       -1.36610000      -2.65340000       0.87490000
H       -0.59900000      -2.33860000      -2.11280000
