15
Properties=species:S:1:pos:R:3 gdb_31428=T pbc="F F F"
C       -0.03340000       1.39570000      -0.01540000
O        0.02130000      -0.03760000       0.02990000
C        0.64410000      -0.58460000       1.07230000
N        1.16950000       0.15560000       1.99230000
C        1.80600000      -0.42860000       3.05750000
N        2.34470000       0.22350000       3.99650000
O        1.86170000      -1.85820000       3.10440000
C        1.30220000      -2.57880000       2.12700000
C        0.67480000      -2.02670000       1.07670000
H        0.97370000       1.81790000      -0.03890000
H       -0.57550000       1.63360000      -0.93060000
H       -0.55640000       1.78790000       0.85970000
H        2.75700000      -0.41170000       4.67760000
H        1.41770000      -3.64510000       2.28830000
H        0.22420000      -2.61150000       0.28960000
