19
Properties=species:S:1:pos:R:3 gdb_39788=T pbc="F F F"
C       -0.05060000       1.52450000       0.01090000
C        1.30300000       0.81120000      -0.00630000
C        0.03190000       0.03910000       0.00200000
C       -0.54340000      -1.02720000       0.96030000
C       -1.79210000      -1.06100000       0.01380000
C       -0.56220000      -1.01670000      -0.95650000
C        0.07910000      -2.04810000      -0.00990000
C        1.24870000      -2.90740000      -0.02600000
O       -0.10330000      -3.44050000      -0.01570000
H       -0.34240000       2.02790000       0.92740000
H       -0.36020000       2.03790000      -0.89420000
H        1.88310000       0.85590000      -0.92280000
H        1.90100000       0.84600000       0.89920000
H       -0.52430000      -1.02970000       2.05020000
H       -2.37520000      -1.98320000       0.01450000
H       -2.42040000      -0.16840000       0.02490000
H       -0.56440000      -1.00730000      -2.04650000
H        1.79890000      -3.07170000      -0.95140000
H        1.81690000      -3.08170000       0.88660000
