16
Properties=species:S:1:pos:R:3 gdb_80817=T pbc="F F F"
O        0.10320000       1.44390000       0.09840000
C        0.05420000       0.05160000       0.03990000
C       -0.03640000      -0.66570000       1.40870000
C       -1.50660000      -0.16150000       1.51610000
C       -1.36180000      -0.66570000       0.04500000
C       -2.35250000      -0.65310000      -0.99700000
N       -3.13650000      -0.62150000      -1.84710000
C       -0.62500000      -1.89570000       0.63780000
O        0.16340000      -2.61150000      -0.26870000
H        0.11910000       1.78740000      -0.80040000
H        0.76480000      -0.36460000      -0.67610000
H        0.71750000      -0.67150000       2.19430000
H       -2.18420000      -0.73510000       2.15240000
H       -1.63670000       0.91130000       1.62850000
H       -1.26150000      -2.55120000       1.24310000
H        0.60770000      -3.32180000       0.20410000
