20
Properties=species:S:1:pos:R:3 gdb_60891=T pbc="F F F"
C       -0.01310000       1.42630000      -0.06740000
N       -0.00470000      -0.02830000      -0.03570000
C       -0.00870000      -0.68030000       1.16620000
O       -0.01860000      -0.14540000       2.25540000
C        0.00460000      -0.72760000      -1.27670000
C        1.08610000      -0.63920000      -2.40410000
C        0.01770000      -1.65020000      -2.90580000
C        0.02140000      -2.26850000      -1.47690000
C       -1.07410000      -0.66230000      -2.40870000
H        0.87640000       1.80960000      -0.57950000
H       -0.90180000       1.79930000      -0.58860000
H       -0.02060000       1.77800000       0.96400000
H       -0.00180000      -1.77730000       1.03730000
H        1.15670000       0.30690000      -2.94690000
H        2.07290000      -1.04290000      -2.16240000
H        0.02550000      -2.19220000      -3.84860000
H        0.93110000      -2.79220000      -1.17180000
H       -0.87820000      -2.81180000      -1.17590000
H       -2.05300000      -1.08690000      -2.17110000
H       -1.16260000       0.28220000      -2.95180000
