14
Properties=species:S:1:pos:R:3 gdb_54751=T pbc="F F F"
N        0.58210000       0.34020000      -0.80640000
C       -0.03780000       0.02340000       0.35840000
O        0.27470000       0.48970000       1.43640000
C       -1.19490000      -0.96020000       0.28700000
C       -1.88150000      -1.53090000      -0.89940000
O       -0.95130000      -1.70060000      -2.00820000
C       -0.24180000      -2.66060000      -1.26200000
O        0.64870000      -3.33940000      -1.64370000
C       -1.08490000      -2.47290000      -0.03210000
H        1.36760000       0.96820000      -0.75860000
H        0.30040000      -0.05600000      -1.68820000
H       -1.84990000      -0.81040000       1.14090000
H       -2.93280000      -1.49620000      -1.14750000
H       -1.37020000      -3.23360000       0.67880000
