25
Properties=species:S:1:pos:R:3 gdb_122991=T pbc="F F F"
C        0.00980000       1.60680000      -0.04240000
C        0.16560000       0.08410000      -0.07710000
C        0.65840000      -0.50220000       1.25010000
C        0.81830000      -2.02580000       1.22430000
C        1.29830000      -2.60960000       2.55970000
C        1.47700000      -4.11590000       2.53490000
O        0.29670000      -4.84320000       2.29080000
C        2.76880000      -4.71700000       2.03280000
C        2.40240000      -4.78000000       3.50530000
H        0.96340000       2.09710000       0.18380000
H       -0.34430000       1.99560000      -1.00220000
H       -0.70810000       1.91360000       0.72650000
H       -0.79560000      -0.37710000      -0.34070000
H        0.86400000      -0.19490000      -0.87740000
H        1.61990000      -0.04060000       1.51570000
H       -0.04020000      -0.22420000       2.05160000
H       -0.14640000      -2.47910000       0.95710000
H        1.52390000      -2.30590000       0.42970000
H        2.25140000      -2.14400000       2.84040000
H        0.57820000      -2.35640000       3.34890000
H        0.07200000      -4.73650000       1.36040000
H        2.69880000      -5.63970000       1.46760000
H        3.57090000      -4.05360000       1.72640000
H        2.95280000      -4.15940000       4.20420000
H        2.08490000      -5.73960000       3.89600000
