17
Properties=species:S:1:pos:R:3 gdb_55989=T pbc="F F F"
N        0.32540000       0.18860000       0.93730000
C       -0.16570000       0.19470000      -0.32650000
O        0.18020000       0.97060000      -1.19590000
C       -1.26650000      -0.85600000      -0.58740000
N       -0.94300000      -2.20340000      -0.16280000
C       -0.69800000      -3.44570000      -0.91140000
C       -0.49390000      -4.14630000       0.46280000
C       -0.74920000      -2.75430000       1.07120000
O       -0.75880000      -2.25910000       2.17790000
H        1.02960000       0.86960000       1.17040000
H       -0.00780000      -0.45990000       1.64210000
H       -2.18320000      -0.52520000      -0.08150000
H       -1.45340000      -0.86040000      -1.66110000
H       -1.56020000      -3.78660000      -1.49300000
H        0.18770000      -3.40810000      -1.55280000
H       -1.24290000      -4.89600000       0.72260000
H        0.50510000      -4.54300000       0.65040000
