16
Properties=species:S:1:pos:R:3 gdb_5574=T pbc="F F F"
C        0.00230000       1.63190000      -0.19230000
C       -0.03980000       0.13630000       0.15910000
C       -1.42510000      -0.43110000       0.15630000
C       -2.14290000      -0.96610000       1.19550000
O       -1.90340000      -1.18500000       2.51280000
N       -3.36260000      -1.33520000       0.68800000
C       -3.34410000      -1.00930000      -0.64490000
N       -2.20490000      -0.47020000      -0.99040000
H        1.03230000       2.00060000      -0.23140000
H       -0.46290000       1.79850000      -1.16740000
H       -0.54750000       2.22510000       0.54570000
H        0.58170000      -0.41720000      -0.55640000
H        0.42370000      -0.02460000       1.14330000
H       -1.00860000      -0.88900000       2.70850000
H       -4.10710000      -1.76160000       1.21340000
H       -4.18800000      -1.19540000      -1.29140000
