13
Properties=species:S:1:pos:R:3 gdb_130254=T pbc="F F F"
N        0.07340000       1.41540000       0.11840000
C        0.03530000       0.04090000      -0.03980000
N       -1.15060000      -0.49180000      -0.13110000
O       -1.19150000      -1.87630000      -0.40920000
C       -0.09960000      -2.64760000      -0.51010000
O       -0.18030000      -3.84040000      -0.72610000
C        1.21380000      -1.99820000      -0.35900000
O        2.25140000      -2.82210000      -0.47500000
C        1.28220000      -0.67110000      -0.13990000
H        0.81030000       1.76050000       0.71590000
H       -0.82940000       1.81830000       0.33130000
H        1.85600000      -3.70060000      -0.64250000
H        2.22660000      -0.14690000      -0.05580000
