17
Properties=species:S:1:pos:R:3 gdb_71352=T pbc="F F F"
O        0.09270000       1.36320000       0.06590000
C        0.06470000      -0.01310000       0.04620000
C        0.74730000      -0.93430000       1.03490000
N        0.08560000      -1.94310000       0.09310000
C       -1.15170000      -1.01860000      -0.04130000
C       -1.06420000      -1.08750000      -1.55330000
C       -1.80980000      -1.78140000      -2.60710000
N       -1.71970000      -0.29010000      -2.57860000
C        0.38740000      -1.01650000      -1.11790000
H       -0.27610000       1.68860000      -0.76420000
H        1.84030000      -0.98190000       1.02530000
H        0.36120000      -0.97640000       2.05770000
H       -2.00160000      -1.12430000       0.63510000
H       -1.28510000      -2.24840000      -3.43550000
H       -2.75890000      -2.24430000      -2.35070000
H       -2.59420000       0.09140000      -2.22300000
H        1.31220000      -1.12540000      -1.68470000
