18
Properties=species:S:1:pos:R:3 gdb_42663=T pbc="F F F"
O       -0.06090000       0.07320000       0.19110000
C       -0.04800000       1.27040000       0.05470000
C       -1.22470000       2.18440000      -0.06020000
C       -1.04430000       3.49010000       0.66970000
C        0.08950000       3.70130000       1.66200000
C        1.34350000       2.84740000       1.33290000
C        1.17470000       2.19350000      -0.05740000
C        0.66660000       3.24080000      -1.05690000
N       -0.78620000       3.42360000      -0.76490000
H       -2.20740000       1.78210000      -0.27710000
H       -1.96300000       4.02330000       0.90670000
H        0.34130000       4.76820000       1.65920000
H       -0.27930000       3.48290000       2.66930000
H        2.24460000       3.46870000       1.33550000
H        1.49200000       2.06950000       2.08810000
H        2.06670000       1.64950000      -0.36780000
H        1.17800000       4.20560000      -0.97910000
H        0.75190000       2.89290000      -2.09080000
