19
Properties=species:S:1:pos:R:3 gdb_115468=T pbc="F F F"
C       -0.11900000       1.38240000       0.00070000
O        0.10670000      -0.00780000       0.05670000
C        0.68190000      -0.55120000      -1.11800000
C        1.24680000      -1.95640000      -0.81540000
C        0.97300000      -2.80260000      -2.08160000
C       -0.14150000      -2.03870000      -2.76120000
C       -0.93120000      -2.57450000      -3.87500000
O       -0.76090000      -3.66980000      -4.36310000
C       -0.30330000      -0.81600000      -2.23760000
H        0.81210000       1.93670000      -0.19570000
H       -0.85250000       1.66030000      -0.77120000
H       -0.51140000       1.68420000       0.97470000
H        1.47230000       0.13240000      -1.47830000
H        2.29960000      -1.93200000      -0.52760000
H        0.67760000      -2.34780000       0.03310000
H        1.85130000      -2.85460000      -2.73690000
H        0.69200000      -3.83690000      -1.86520000
H       -1.72460000      -1.89150000      -4.25330000
H       -1.02880000      -0.08450000      -2.57810000
