19
Properties=species:S:1:pos:R:3 gdb_10499=T pbc="F F F"
C        0.12140000       1.45340000       0.31590000
C       -0.02770000       0.01040000      -0.17770000
C       -1.45330000      -0.51990000      -0.06480000
C       -1.65130000      -1.97000000       0.23600000
N       -1.93570000      -0.96690000       1.27040000
C       -2.43200000       0.17040000      -0.87310000
C       -3.21810000       0.75080000      -1.57760000
C       -4.18550000       1.44450000      -2.41560000
H        1.15430000       1.79760000       0.20840000
H       -0.52470000       2.12580000      -0.25560000
H       -0.15610000       1.54290000       1.37150000
H        0.29090000      -0.05670000      -1.22480000
H        0.63370000      -0.65320000       0.39420000
H       -2.52620000      -2.48020000      -0.15500000
H       -0.76190000      -2.58920000       0.32740000
H       -1.15800000      -0.92280000       1.92660000
H       -5.17800000       0.98770000      -2.33340000
H       -4.28150000       2.49770000      -2.12880000
H       -3.89390000       1.41360000      -3.47140000
