17
Properties=species:S:1:pos:R:3 gdb_52380=T pbc="F F F"
N       -0.00040000       1.38440000       0.22980000
C       -0.00270000       0.12180000       0.03530000
N       -1.14980000      -0.60930000      -0.13140000
C       -2.43790000       0.04600000      -0.27040000
C       -3.58270000      -0.94700000      -0.04140000
C       -4.93190000      -0.25870000      -0.04460000
O       -5.86590000      -0.58670000      -0.72750000
C        1.26130000      -0.71280000       0.01680000
O        2.35330000      -0.23660000       0.17470000
H        0.96440000       1.68280000       0.38580000
H       -1.05480000      -1.52130000      -0.55200000
H       -2.46790000       0.85530000       0.46530000
H       -2.53620000       0.52220000      -1.25720000
H       -3.59850000      -1.73750000      -0.79860000
H       -3.44910000      -1.41450000       0.94440000
H       -5.00800000       0.60250000       0.65920000
H        1.12240000      -1.80520000      -0.15240000
