18
Properties=species:S:1:pos:R:3 gdb_103451=T pbc="F F F"
C        0.09660000       1.43110000      -0.34260000
C        0.01220000       0.01830000       0.24900000
C       -1.36470000      -0.59220000       0.11610000
O       -2.36160000      -0.00260000       0.91460000
C       -1.92520000      -1.13990000      -1.17610000
O       -0.99980000      -1.52360000      -2.18820000
C       -0.27940000      -2.54170000      -1.64340000
N       -0.55340000      -2.93160000      -0.46480000
C       -1.62860000      -2.08150000      -0.00700000
H        1.09690000       1.85250000      -0.20840000
H       -0.12460000       1.42200000      -1.41480000
H       -0.60820000       2.11480000       0.14480000
H        0.75600000      -0.62690000      -0.22510000
H        0.25650000       0.04130000       1.31750000
H       -2.56030000       0.86690000       0.54850000
H       -2.89450000      -0.84650000      -1.55960000
H        0.48930000      -2.94820000      -2.28900000
H       -2.37450000      -2.52100000       0.64370000
