12
Properties=species:S:1:pos:R:3 gdb_1072=T pbc="F F F"
C        0.00060000       1.41380000      -0.02180000
O        0.00470000      -0.01240000      -0.00380000
C        0.59740000      -0.61640000      -1.04320000
C        0.72140000      -1.95630000      -1.24510000
O        1.39550000      -2.11880000      -2.43320000
C        1.63190000      -0.87130000      -2.86550000
N        1.18570000       0.06810000      -2.09060000
H        1.01960000       1.81310000      -0.02580000
H       -0.52920000       1.79760000      -0.89920000
H       -0.51640000       1.71720000       0.88960000
H        0.42700000      -2.84190000      -0.71430000
H        2.16030000      -0.76600000      -3.79960000
