21
Properties=species:S:1:pos:R:3 gdb_111846=T pbc="F F F"
C        0.31830000       1.40970000      -0.16540000
C        0.27680000      -0.07490000       0.06420000
O       -0.82640000      -0.72180000      -0.55800000
C       -1.53580000      -1.50170000       0.41500000
C       -0.55160000      -1.79920000       1.57120000
C        0.56940000      -0.78760000       1.35160000
C        1.50300000      -0.94940000       0.14740000
C        1.58170000      -2.20870000      -0.69940000
O        1.37470000      -1.94440000      -2.07760000
H        1.18560000       1.85040000       0.33470000
H        0.39450000       1.63430000      -1.23440000
H       -0.58620000       1.89210000       0.22020000
H       -2.40440000      -0.93220000       0.77460000
H       -1.90330000      -2.40300000      -0.08420000
H       -1.02640000      -1.63790000       2.54280000
H       -0.20130000      -2.83550000       1.55300000
H        0.94920000      -0.24630000       2.21070000
H        2.43970000      -0.40510000       0.23740000
H        2.58070000      -2.64850000      -0.61690000
H        0.87460000      -2.96890000      -0.33820000
H        0.48580000      -1.57090000      -2.13140000
