23
Properties=species:S:1:pos:R:3 gdb_89495=T pbc="F F F"
C       -0.13250000       1.57510000       0.03230000
C        0.02170000       0.05180000       0.07040000
C        0.73700000      -0.53280000      -1.19520000
C        1.45260000      -1.79840000      -0.67030000
C        0.69930000      -3.09440000      -0.98410000
C        3.01670000      -2.00060000      -0.69390000
C        2.99230000      -2.14170000       0.87600000
C        1.63870000      -1.47590000       0.79450000
C        0.92060000      -0.43960000       1.21070000
H        0.84590000       2.06550000      -0.02790000
H       -0.72000000       1.88930000      -0.83730000
H       -0.63970000       1.94790000       0.92870000
H       -0.98590000      -0.38300000       0.15770000
H        0.04240000      -0.72510000      -2.02030000
H        1.47300000       0.20070000      -1.54700000
H        0.75380000      -3.32260000      -2.05510000
H        1.11790000      -3.94870000      -0.44150000
H       -0.35840000      -3.01350000      -0.71110000
H        3.39530000      -2.85830000      -1.25720000
H        3.54540000      -1.09670000      -1.00560000
H        2.95610000      -3.19210000       1.18300000
H        3.77080000      -1.63700000       1.45290000
H        0.99640000       0.08020000       2.16010000
