20
Properties=species:S:1:pos:R:3 gdb_31822=T pbc="F F F"
C        0.03960000       1.45240000      -0.12370000
N       -0.14620000       0.03310000       0.09290000
C        0.55310000      -0.64560000       1.08500000
C        1.20600000       0.01570000       2.13350000
C        1.85410000      -0.71040000       3.13140000
C        1.89000000      -2.10300000       3.12820000
C        2.58930000      -2.88350000       4.21390000
C        1.24240000      -2.75570000       2.07090000
C        0.58850000      -2.05170000       1.07370000
H        1.09230000       1.74010000      -0.27650000
H       -0.53180000       1.75210000      -1.00520000
H       -0.34390000       2.02690000       0.72700000
H       -0.28010000      -0.50280000      -0.75000000
H        1.21190000       1.09810000       2.17770000
H        2.35030000      -0.16790000       3.93160000
H        1.88310000      -3.47860000       4.80580000
H        3.32540000      -3.58280000       3.80050000
H        3.11590000      -2.21800000       4.90390000
H        1.25140000      -3.84170000       2.02840000
H        0.09110000      -2.58770000       0.26960000
