12
Properties=species:S:1:pos:R:3 gdb_16263=T pbc="F F F"
O       -0.06840000       0.00340000      -0.00590000
C       -0.05210000       1.19140000       0.05610000
C       -1.15010000       2.29050000       0.18760000
C       -0.03240000       3.30780000      -0.06690000
O        0.90620000       3.13810000       0.98030000
C        1.03510000       2.26290000      -0.17600000
C        2.25990000       2.19330000      -0.88470000
C        3.28330000       2.07100000      -1.50350000
H       -1.88200000       2.18890000      -0.61940000
H       -1.65820000       2.38360000       1.14890000
H       -0.06800000       4.26060000      -0.58030000
H        4.19130000       1.97140000      -2.04600000
