19
Properties=species:S:1:pos:R:3 gdb_66194=T pbc="F F F"
C        0.00860000       1.50890000       0.06370000
C       -0.03240000      -0.02110000      -0.01500000
C        0.71770000      -0.54140000      -1.26410000
C        1.08260000      -1.99410000      -1.11800000
C        1.05480000      -2.60880000       0.06060000
C        0.68050000      -1.88540000       1.32110000
O        0.63850000      -0.47580000       1.16530000
C       -1.43270000      -0.48320000      -0.02870000
C       -2.57850000      -0.84690000      -0.02880000
H        1.04830000       1.83720000       0.14460000
H       -0.44010000       1.94980000      -0.83020000
H       -0.54000000       1.85520000       0.94200000
H        0.09360000      -0.38880000      -2.15200000
H        1.62060000       0.06720000      -1.40900000
H        1.36810000      -2.53200000      -2.01770000
H        1.28910000      -3.66560000       0.15470000
H       -0.28680000      -2.26060000       1.69650000
H        1.42240000      -2.06820000       2.10740000
H       -3.59010000      -1.17060000      -0.03130000
