14
Properties=species:S:1:pos:R:3 gdb_27584=T pbc="F F F"
N        0.00050000       1.37600000       0.15120000
C       -0.01170000       0.00510000       0.05830000
C       -1.22120000      -0.71370000       0.04770000
C       -1.16020000      -2.10170000       0.00230000
C        0.08790000      -2.74110000      -0.02640000
C        1.21440000      -1.93160000      -0.01340000
N        1.18420000      -0.59840000       0.02290000
C       -2.36890000      -2.87060000      -0.01420000
N       -3.34420000      -3.49310000      -0.02880000
H        0.88510000       1.80560000      -0.07170000
H       -0.81610000       1.88060000      -0.15180000
H       -2.17600000      -0.20280000       0.07870000
H        0.16450000      -3.81940000      -0.06220000
H        2.20460000      -2.38010000      -0.03830000
