22
Properties=species:S:1:pos:R:3 gdb_117948=T pbc="F F F"
C        0.10880000       1.48080000       0.19940000
C       -0.20020000       0.02070000      -0.12350000
N        0.85310000      -0.54950000      -0.95050000
C        0.75920000      -1.97110000      -1.24000000
C       -0.56380000      -2.46120000      -1.87900000
C        1.89380000      -2.31470000      -2.19530000
O        2.31880000      -1.57500000      -3.04810000
O        2.33360000      -3.57210000      -2.00670000
C        3.35770000      -4.00660000      -2.91200000
H        1.07650000       1.56820000       0.70090000
H        0.14860000       2.08280000      -0.71560000
H       -0.66420000       1.90890000       0.84480000
H       -0.24660000      -0.56010000       0.80800000
H       -1.20600000      -0.04340000      -0.57610000
H        0.96440000      -0.04020000      -1.82170000
H        0.91730000      -2.53040000      -0.31020000
H       -0.52140000      -3.53700000      -2.07460000
H       -1.40790000      -2.27240000      -1.21120000
H       -0.74730000      -1.94160000      -2.82530000
H        3.00000000      -3.97400000      -3.94420000
H        4.24080000      -3.36860000      -2.82670000
H        3.59560000      -5.02990000      -2.62170000
