23
Properties=species:S:1:pos:R:3 gdb_119894=T pbc="F F F"
O       -0.09590000       1.49370000      -0.12590000
C        0.03320000       0.08250000      -0.03710000
C       -1.37530000      -0.50740000       0.07430000
C       -1.38780000      -2.01770000       0.08130000
C       -1.53110000      -2.71450000       1.21250000
C       -1.56590000      -4.21880000       1.29610000
C       -1.76120000      -4.87420000      -0.07840000
C       -0.88030000      -4.19410000      -1.13180000
C       -1.23590000      -2.70700000      -1.25960000
H        0.78600000       1.87370000      -0.17470000
H        0.54730000      -0.32450000      -0.92240000
H        0.62040000      -0.21410000       0.84600000
H       -1.83630000      -0.11500000       0.98650000
H       -1.96240000      -0.12510000      -0.77110000
H       -1.63540000      -2.17430000       2.15250000
H       -0.63320000      -4.58070000       1.75600000
H       -2.36420000      -4.53140000       1.98150000
H       -1.54370000      -5.94620000      -0.02230000
H       -2.81350000      -4.78080000      -0.37730000
H        0.17310000      -4.29040000      -0.83730000
H       -0.98190000      -4.69080000      -2.10280000
H       -2.17500000      -2.59240000      -1.82280000
H       -0.47800000      -2.18990000      -1.86180000
