18
Properties=species:S:1:pos:R:3 gdb_110429=T pbc="F F F"
C       -0.26970000       1.47780000      -0.11690000
C       -0.02210000      -0.02920000       0.01810000
C        0.73290000      -0.60320000      -1.16890000
C        0.85810000      -2.11120000      -1.41530000
C        0.68170000      -1.87320000      -2.86350000
C       -0.46580000      -2.53930000      -2.11350000
C       -1.20000000      -1.25930000      -2.30240000
O       -2.32950000      -0.89420000      -2.38690000
N        0.06350000      -0.50160000      -2.55020000
H        0.67310000       2.02700000      -0.21470000
H       -0.87580000       1.69250000      -1.00110000
H       -0.79530000       1.86640000       0.75990000
H        0.56900000      -0.23760000       0.91930000
H       -0.97620000      -0.55280000       0.14750000
H        1.71540000      -0.12810000      -1.26070000
H        1.46910000      -2.85650000      -0.91830000
H        1.17760000      -2.14570000      -3.78190000
H       -0.80350000      -3.56640000      -2.13280000
