21
Properties=species:S:1:pos:R:3 gdb_100305=T pbc="F F F"
C       -0.22040000       1.54840000      -0.03340000
C       -0.13380000       0.01730000      -0.08150000
C        0.78260000      -0.50940000       1.05140000
O        0.14340000      -0.55280000       2.32580000
C       -1.55290000      -0.58390000       0.08580000
O       -1.54620000      -1.96980000       0.37190000
C        0.45360000      -0.49160000      -1.39060000
C        0.53320000       0.27900000      -2.63760000
O        1.69560000       0.07330000      -1.82990000
H        0.72480000       1.99810000      -0.34960000
H       -1.01940000       1.93060000      -0.67730000
H       -0.44030000       1.89540000       0.98290000
H        1.06370000      -1.54480000       0.84250000
H        1.70690000       0.08180000       1.08630000
H       -0.00660000       0.34880000       2.62620000
H       -2.08850000      -0.02340000       0.86440000
H       -2.11240000      -0.45790000      -0.84820000
H       -1.25570000      -2.04670000       1.28880000
H        0.40910000      -1.57770000      -1.48220000
H        0.53010000      -0.24830000      -3.59060000
H        0.17080000       1.30390000      -2.67840000
