19
Properties=species:S:1:pos:R:3 gdb_41204=T pbc="F F F"
C        0.03740000       1.59960000      -0.11410000
O        1.51220000       1.47640000       0.00530000
C        1.20280000       0.28320000       0.83230000
C        1.29410000      -1.28340000       1.08630000
C       -0.32260000      -1.10240000       1.12500000
C       -0.05920000       0.05260000       0.09150000
C        0.20020000      -0.66190000      -1.26940000
C        1.50690000      -1.46120000      -1.22920000
O        1.70090000      -2.09720000       0.03610000
H       -0.36310000       2.20480000       0.70830000
H       -0.24800000       2.01540000      -1.08410000
H        1.00970000       0.68290000       1.83870000
H        1.79050000      -1.63410000       1.99410000
H       -0.87710000      -1.97370000       0.76860000
H       -0.68450000      -0.79000000       2.10540000
H       -0.65350000      -1.31570000      -1.48190000
H        0.26540000       0.06080000      -2.08700000
H        1.53910000      -2.25260000      -1.98240000
H        2.34500000      -0.77440000      -1.40560000
