20
Properties=species:S:1:pos:R:3 gdb_116966=T pbc="F F F"
O       -0.10870000       0.89720000      -0.86420000
C       -0.06890000      -0.47580000      -0.51630000
C       -1.44980000      -0.83370000       0.04470000
C       -1.54850000      -2.23110000       0.44690000
C       -1.59620000      -3.38550000       0.79210000
C       -1.67410000      -4.79620000       1.18750000
N       -2.23790000      -5.74270000       0.21540000
C       -3.34060000      -5.30000000      -0.62970000
C       -1.98320000      -5.52120000      -1.20310000
H        0.75240000       1.14680000      -1.21110000
H        0.14700000      -1.11220000      -1.38770000
H        0.69860000      -0.68310000       0.24410000
H       -1.65860000      -0.17590000       0.89730000
H       -2.20390000      -0.59920000      -0.71630000
H       -0.66890000      -5.15660000       1.43930000
H       -2.27170000      -4.88340000       2.10340000
H       -4.13290000      -6.02830000      -0.77790000
H       -3.66880000      -4.26620000      -0.54620000
H       -1.42910000      -4.63060000      -1.49100000
H       -1.76130000      -6.41430000      -1.78020000
