18
Properties=species:S:1:pos:R:3 gdb_94280=T pbc="F F F"
O        0.22950000       1.39380000      -0.12430000
C        0.13720000      -0.00290000       0.03240000
C        0.19470000      -0.53970000       1.49160000
N       -1.27980000      -0.66720000       1.46020000
C       -1.29640000      -0.59090000       0.00900000
C       -2.53950000      -0.12110000      -0.78510000
C       -1.94620000      -0.74240000      -2.06740000
C       -1.78320000      -1.75180000      -0.90940000
O       -3.16690000      -1.43790000      -0.47350000
H       -0.39280000       1.79810000       0.49130000
H        0.85090000      -0.43540000      -0.67050000
H        0.74540000      -1.48680000       1.57330000
H        0.57670000       0.16170000       2.24130000
H       -1.71580000      -1.47480000       1.88810000
H       -3.15600000       0.76860000      -0.65690000
H       -2.68770000      -1.03140000      -2.81190000
H       -1.05330000      -0.28490000      -2.49920000
H       -1.49150000      -2.80310000      -0.93350000
