20
Properties=species:S:1:pos:R:3 gdb_114223=T pbc="F F F"
C        0.03460000       1.30800000      -0.21380000
O       -0.13060000      -0.05970000       0.07720000
C        0.64560000      -0.51630000       1.17570000
C        0.13230000      -1.90970000       1.60100000
C        1.39150000      -2.72980000       1.89280000
C        1.55870000      -3.52590000       3.14210000
N        1.41260000      -4.20170000       1.84120000
C        2.50330000      -1.97280000       1.25850000
C        2.10970000      -0.76380000       0.86110000
H        1.05540000       1.54980000      -0.54580000
H       -0.65820000       1.55190000      -1.02320000
H       -0.20080000       1.94050000       0.65720000
H        0.55040000       0.21550000       1.99710000
H       -0.56760000      -1.87010000       2.43890000
H       -0.39380000      -2.32880000       0.73620000
H        2.53850000      -3.62770000       3.60190000
H        0.72700000      -3.54370000       3.84260000
H        0.46260000      -4.55190000       1.73750000
H        3.49990000      -2.39010000       1.17150000
H        2.74160000      -0.01520000       0.39810000
