19
Properties=species:S:1:pos:R:3 gdb_45791=T pbc="F F F"
O        0.11430000      -0.03040000      -0.40570000
C        0.01620000       1.13280000      -0.08490000
C       -1.35370000       1.68350000       0.33450000
C       -1.44900000       2.75940000       1.38920000
C       -0.52600000       3.65370000       1.74640000
C        0.86010000       3.77270000       1.17150000
C        0.91910000       3.55260000      -0.37030000
C        1.22460000       2.04790000      -0.12130000
C        1.68930000       2.45650000       1.31800000
H       -1.82400000       2.04810000      -0.59400000
H       -1.94850000       0.81280000       0.62600000
H       -2.41020000       2.78920000       1.89760000
H       -0.78010000       4.35540000       2.53690000
H        1.34280000       4.67930000       1.54150000
H        0.03100000       3.81310000      -0.95080000
H        1.78670000       4.04950000      -0.81120000
H        1.97470000       1.56870000      -0.75160000
H        2.76540000       2.64790000       1.32650000
H        1.43480000       1.79290000       2.14670000
