18
Properties=species:S:1:pos:R:3 gdb_30945=T pbc="F F F"
C       -0.00310000       1.62520000       0.34960000
C       -0.01480000       0.13700000      -0.04200000
C       -1.38020000      -0.45710000      -0.09360000
C       -2.06640000      -0.96540000      -1.12740000
N       -1.72770000      -1.10780000      -2.46730000
O       -3.33060000      -1.40020000      -0.67560000
C       -3.41300000      -1.15170000       0.67580000
N       -4.38030000      -1.40470000       1.45740000
N       -2.21600000      -0.56240000       1.02250000
H        1.02140000       2.00770000       0.37310000
H       -0.57560000       2.22040000      -0.36770000
H       -0.44140000       1.78660000       1.33990000
H        0.43270000       0.00440000      -1.03060000
H        0.60570000      -0.42890000       0.66670000
H       -1.73540000      -2.07890000      -2.76630000
H       -2.35200000      -0.59190000      -3.08100000
H       -5.14350000      -1.84250000       0.94880000
H       -1.99780000      -0.31290000       1.96980000
