15
Properties=species:S:1:pos:R:3 gdb_35076=T pbc="F F F"
N       -0.05380000      -1.16810000       0.12470000
C       -0.05710000      -0.01390000       0.06760000
C       -0.05120000       1.44670000      -0.00830000
C       -0.57570000       2.06210000       1.29580000
C        0.21450000       3.10730000       1.62090000
C        1.40850000       2.76090000       2.51040000
N        2.17130000       2.58390000       1.18370000
C        1.35530000       2.10870000      -0.04100000
C        1.18920000       3.46240000       0.49620000
H       -0.56570000       1.73250000      -0.93730000
H       -0.98900000       1.39900000       2.04890000
H        1.91580000       3.57770000       3.03030000
H        1.32540000       1.87850000       3.14880000
H        2.04210000       1.86920000      -0.84650000
H        1.44060000       4.42440000       0.06590000
