14
Properties=species:S:1:pos:R:3 gdb_470=T pbc="F F F"
C        0.08600000       1.56580000      -0.09600000
C        0.14550000       0.06280000       0.05030000
O        0.64670000      -0.53370000      -1.13620000
C        1.39580000      -1.68430000      -0.75900000
C        1.40180000      -1.64060000       0.78580000
O        1.03870000      -0.30190000       1.07770000
H        1.08710000       1.95440000      -0.29700000
H       -0.57540000       1.83160000      -0.92420000
H       -0.29950000       2.01670000       0.82200000
H       -0.85650000      -0.35630000       0.26870000
H        0.92630000      -2.59850000      -1.14290000
H        2.40280000      -1.60380000      -1.18360000
H        0.66850000      -2.34620000       1.20460000
H        2.37900000      -1.84190000       1.22990000
