16
Properties=species:S:1:pos:R:3 gdb_2322=T pbc="F F F"
C       -0.00820000       1.58150000      -0.24370000
C       -0.02850000       0.08900000       0.00320000
C        1.20690000      -0.73690000      -0.11810000
N        0.57410000      -0.53360000       1.18470000
C        1.27330000       0.28080000       2.16290000
C        2.00610000      -0.61670000       3.15000000
O        2.98790000      -0.28660000       3.76140000
H        0.97090000       2.02460000      -0.04630000
H       -0.25970000       1.78650000      -1.28940000
H       -0.74800000       2.09620000       0.37930000
H       -0.97070000      -0.38490000      -0.27010000
H        1.17300000      -1.74850000      -0.51360000
H        2.13640000      -0.20340000      -0.31660000
H        1.99410000       1.00680000       1.75920000
H        0.53110000       0.84710000       2.74530000
H        1.53810000      -1.61860000       3.27180000
