13
Properties=species:S:1:pos:R:3 gdb_1840=T pbc="F F F"
C       -0.02940000       1.48510000       0.06410000
C       -0.00150000      -0.00190000      -0.03960000
C       -0.04430000      -0.78860000      -1.11780000
C        0.01140000      -2.20570000      -0.69890000
O       -0.00250000      -3.20970000      -1.35170000
O        0.08940000      -2.22480000       0.67880000
C        0.08690000      -0.89230000       1.17370000
H        0.87130000       1.85960000       0.56540000
H       -0.09550000       1.95460000      -0.91950000
H       -0.88430000       1.81970000       0.66430000
H       -0.10930000      -0.50120000      -2.15710000
H        1.00390000      -0.71650000       1.75200000
H       -0.76640000      -0.75670000       1.85150000
