12
Properties=species:S:1:pos:R:3 gdb_42151=T pbc="F F F"
O        0.05600000      -0.05550000      -0.25680000
C       -0.04020000       1.13720000      -0.07800000
C        1.15960000       1.97720000       0.09530000
N        2.10620000       2.62630000       0.23400000
C       -1.27530000       1.86050000      -0.00960000
C       -2.31760000       2.46840000       0.05290000
C       -3.57130000       3.16100000       0.11240000
C       -3.87130000       4.08420000       1.23270000
O       -3.53990000       4.58430000      -0.05060000
H       -4.40460000       2.66540000      -0.38240000
H       -4.91010000       4.19950000       1.53720000
H       -3.12290000       4.23620000       2.00720000
