15
Properties=species:S:1:pos:R:3 gdb_130923=T pbc="F F F"
O       -0.49650000       0.62090000      -0.64600000
C        0.22140000       0.91040000       0.27460000
C        1.37450000       1.88760000       0.18750000
C        1.46380000       2.73930000      -1.13800000
N        1.17570000       3.89370000      -0.27070000
N        1.09660000       5.22360000      -0.17680000
C        0.95980000       5.38810000       1.15160000
C        0.98210000       4.17230000       1.89150000
C        1.13170000       3.22910000       0.89300000
H        0.07160000       0.47550000       1.28740000
H        2.30410000       1.38540000       0.47800000
H        2.45170000       2.77250000      -1.60220000
H        0.68950000       2.51950000      -1.87390000
H        0.84280000       6.38730000       1.54580000
H        0.90010000       4.04860000       2.95790000
