10
Properties=species:S:1:pos:R:3 gdb_133397=T pbc="F F F"
F       -0.23810000      -0.11000000       0.02690000
C       -0.27590000       1.18790000      -0.30200000
C       -1.56430000       1.77470000       0.04640000
F       -2.48630000       1.02200000       0.66210000
C       -1.80540000       3.05450000      -0.21930000
N       -2.06100000       4.17960000      -0.58550000
N        1.07390000       4.74500000       0.60000000
N        2.14900000       4.52500000       0.55030000
O        0.64900000       1.74430000      -0.80780000
H       -1.81920000       4.95980000       0.02750000
