20
Properties=species:S:1:pos:R:3 gdb_91870=T pbc="F F F"
C        0.12000000       1.56350000       0.01230000
C        0.03950000       0.03910000      -0.01230000
C        0.55950000      -0.54920000      -1.32900000
C        0.67680000      -2.07160000      -1.27380000
C        2.00460000      -2.69530000      -0.94800000
C        0.89220000      -2.71040000       0.08320000
C        1.02060000      -1.85310000       1.30690000
O        1.30740000      -2.30730000       2.39900000
N        0.82200000      -0.50750000       1.10150000
H        1.15700000       1.89800000      -0.09560000
H       -0.46840000       1.99010000      -0.80520000
H       -0.27390000       1.96610000       0.95190000
H       -1.01750000      -0.25340000       0.10040000
H       -0.11750000      -0.25530000      -2.13750000
H        1.53410000      -0.09880000      -1.55200000
H        0.03930000      -2.61940000      -1.95990000
H        2.26920000      -3.64260000      -1.40380000
H        2.84340000      -2.02930000      -0.77300000
H        0.44290000      -3.67360000       0.29350000
H        0.82600000       0.02240000       1.96320000
