19
Properties=species:S:1:pos:R:3 gdb_110995=T pbc="F F F"
C       -0.03660000       1.36910000      -0.23580000
O       -0.11470000       0.08390000       0.34460000
C       -1.34300000      -0.53790000       0.16870000
C       -1.52040000      -1.44040000      -1.11820000
O       -0.66070000      -2.42190000      -0.47200000
C       -1.35680000      -1.99920000       0.75190000
C       -0.68850000      -2.38290000       2.03870000
C       -2.81030000      -2.38240000       0.42610000
C       -2.91910000      -1.99990000      -0.85060000
H        0.94360000       1.77870000       0.01730000
H       -0.13270000       1.33060000      -1.33050000
H       -0.81700000       2.03870000       0.15740000
H       -2.17950000       0.12650000       0.42880000
H       -1.21180000      -1.15000000      -2.12130000
H        0.29350000      -1.90970000       2.10670000
H       -1.29230000      -2.06490000       2.89480000
H       -0.56180000      -3.46860000       2.09050000
H       -3.53630000      -2.80690000       1.10460000
H       -3.76510000      -2.01050000      -1.52220000
