20
Properties=species:S:1:pos:R:3 gdb_57965=T pbc="F F F"
C        0.05870000       1.47410000      -0.30830000
C       -0.10000000       0.04280000       0.22590000
O        0.33030000      -0.03820000       1.55780000
C       -1.56560000      -0.42600000       0.16420000
O       -2.18350000      -0.62690000       1.19880000
N       -2.10610000      -0.57670000      -1.07300000
C       -3.43240000      -1.08160000      -1.28200000
C       -4.60570000      -0.17610000      -1.02720000
C       -4.21960000      -0.53230000      -2.44090000
H        1.09610000       1.79270000      -0.17780000
H       -0.19520000       1.54730000      -1.37100000
H       -0.58390000       2.15890000       0.25320000
H        0.50470000      -0.63860000      -0.39570000
H       -0.47290000      -0.26520000       2.05860000
H       -1.49040000      -0.52130000      -1.86940000
H       -3.56130000      -2.13290000      -1.03790000
H       -5.49780000      -0.61820000      -0.60000000
H       -4.38580000       0.82690000      -0.68270000
H       -3.75280000       0.24060000      -3.04230000
H       -4.84350000      -1.22030000      -2.99950000
