20
Properties=species:S:1:pos:R:3 gdb_100732=T pbc="F F F"
C       -0.05370000       1.60710000       0.02510000
C        0.10310000       0.08490000      -0.01920000
C        0.64660000      -0.50070000       1.28300000
O       -0.22260000      -0.21730000       2.39220000
C        0.88700000      -2.02610000       1.17800000
O        1.59390000      -2.33890000       0.01140000
C        1.67770000      -2.59580000       2.37680000
N        1.20400000      -2.31210000       3.60950000
O        2.66040000      -3.29030000       2.15880000
H        0.91550000       2.09650000       0.17020000
H       -0.48060000       1.98340000      -0.90900000
H       -0.70540000       1.91660000       0.84730000
H       -0.86560000      -0.39100000      -0.23720000
H        0.77610000      -0.21500000      -0.82640000
H        1.59360000      -0.00900000       1.53640000
H       -1.11820000      -0.45440000       2.12320000
H       -0.10650000      -2.51290000       1.17370000
H        2.33070000      -2.89680000       0.32400000
H        0.52780000      -1.56540000       3.70270000
H        1.75900000      -2.59480000       4.40170000
