14
Properties=species:S:1:pos:R:3 gdb_12190=T pbc="F F F"
C       -0.03830000       1.44440000      -0.03710000
N       -0.00820000       0.00380000      -0.05660000
C       -1.07600000      -0.99550000      -0.08310000
C        0.03670000      -2.09270000      -0.04620000
C        0.10330000      -2.99820000      -1.17460000
N        0.15060000      -3.71050000      -2.08390000
C        1.03790000      -0.87520000      -0.05310000
O        2.22780000      -0.74230000      -0.03900000
H        0.99530000       1.79680000      -0.01830000
H       -0.53360000       1.84380000      -0.92950000
H       -0.55860000       1.82070000       0.85150000
H       -1.73010000      -0.98050000       0.79480000
H       -1.67790000      -0.98650000      -0.99670000
H        0.07750000      -2.64830000       0.89340000
