19
Properties=species:S:1:pos:R:3 gdb_64245=T pbc="F F F"
C       -0.02850000       1.57800000       0.18450000
C        0.01630000       0.05840000       0.08520000
O       -1.27940000      -0.49760000      -0.00770000
C        1.09590000      -0.47610000      -0.91450000
C        2.05820000      -0.68510000       0.28850000
C        0.82790000      -0.62670000       1.21260000
O        0.98800000       0.08240000       2.43360000
C        0.41150000      -0.41320000       3.54760000
O        0.46250000       0.14380000       4.60200000
H        0.96910000       2.00740000       0.30880000
H       -0.46010000       1.99860000      -0.73210000
H       -0.63990000       1.88780000       1.03590000
H       -1.79360000       0.02350000      -0.63350000
H        0.77050000      -1.42050000      -1.35600000
H        1.42180000       0.20260000      -1.70530000
H        2.65900000      -1.59500000       0.31570000
H        2.70900000       0.17640000       0.45410000
H        0.40650000      -1.62030000       1.40170000
H       -0.09720000      -1.38060000       3.37150000
