16
Properties=species:S:1:pos:R:3 gdb_9711=T pbc="F F F"
C        0.03580000       1.49260000      -0.06580000
C       -0.04740000      -0.03870000       0.02010000
O        0.65800000      -0.59440000      -1.10480000
C        1.58280000      -1.58900000      -0.67340000
C        1.59380000      -1.48900000       0.82550000
C        0.67620000      -0.61900000       1.22340000
C       -1.45540000      -0.47580000       0.00320000
C       -2.60580000      -0.82460000       0.00410000
H        1.08350000       1.80200000      -0.03140000
H       -0.40750000       1.83470000      -1.00410000
H       -0.50550000       1.95540000       0.76430000
H        1.26680000      -2.58820000      -1.01490000
H        2.56350000      -1.38450000      -1.12600000
H        2.25460000      -2.07100000       1.45530000
H        0.41680000      -0.34240000       2.23640000
H       -3.62000000      -1.13950000      -0.00390000
