19
Properties=species:S:1:pos:R:3 gdb_96228=T pbc="F F F"
O       -0.13080000       1.45960000       0.07200000
C       -0.07270000       0.06020000       0.01630000
C       -1.48140000      -0.51120000      -0.18240000
C       -1.59620000      -2.00170000       0.14760000
C       -1.07360000      -2.96240000      -0.92540000
C        0.33700000      -2.81060000      -1.42030000
C        1.16410000      -1.75610000      -1.46000000
C        0.95590000      -0.35740000      -1.03940000
O        1.66760000       0.51620000      -1.51260000
H        0.61320000       1.76100000      -0.47670000
H        0.31760000      -0.34490000       0.97100000
H       -2.13030000       0.06010000       0.48860000
H       -1.82900000      -0.30290000      -1.20190000
H       -1.07680000      -2.20060000       1.09390000
H       -2.64890000      -2.24880000       0.32310000
H       -1.18930000      -3.99200000      -0.56410000
H       -1.72480000      -2.90680000      -1.81280000
H        0.72120000      -3.71700000      -1.88780000
H        2.12220000      -1.87850000      -1.95860000
