20
Properties=species:S:1:pos:R:3 gdb_22071=T pbc="F F F"
C       -0.56830000       1.23470000      -0.14910000
C       -0.03060000      -0.18200000      -0.01440000
C        1.18810000      -0.61500000      -0.80050000
C        1.76740000      -1.40420000       0.35180000
C        0.73020000      -0.66320000       1.27290000
C        1.35770000       0.44390000       2.11080000
O       -0.11100000      -1.48930000       2.05350000
N        1.57630000      -0.25600000      -1.95080000
O        2.82170000      -0.83640000      -2.26960000
H        0.21720000       1.98130000      -0.00180000
H       -0.98220000       1.38750000      -1.15000000
H       -1.36470000       1.42020000       0.57860000
H       -0.83880000      -0.90720000      -0.17550000
H        1.54620000      -2.47390000       0.28430000
H        2.83240000      -1.26520000       0.55410000
H        1.98980000       1.09970000       1.50460000
H        0.58560000       1.05170000       2.59150000
H        1.99310000       0.01170000       2.89410000
H        0.37000000      -1.74720000       2.84750000
H        2.99660000      -0.46830000      -3.14220000
