20
Properties=species:S:1:pos:R:3 gdb_14096=T pbc="F F F"
C       -0.26650000       1.46720000       0.05860000
C        0.04220000      -0.02270000      -0.03840000
C        1.28970000      -0.38780000      -0.90790000
C        2.07560000      -0.78420000       0.37770000
C        0.77180000      -0.64120000       1.16990000
C        0.58330000      -0.32630000       2.63330000
C        0.17730000      -1.67010000       2.07490000
O       -1.17870000      -1.95600000       1.88320000
H        0.62300000       2.04230000       0.34020000
H       -0.62570000       1.85340000      -0.90190000
H       -1.04140000       1.66520000       0.80710000
H       -0.86470000      -0.57000000      -0.31000000
H        1.11300000      -1.22950000      -1.58130000
H        1.71280000       0.43600000      -1.48890000
H        2.53500000      -1.77700000       0.37980000
H        2.83900000      -0.05310000       0.66140000
H        1.45910000      -0.27070000       3.27340000
H       -0.21840000       0.35770000       2.89580000
H        0.79550000      -2.53280000       2.33040000
H       -1.58330000      -2.07750000       2.74830000
