19
Properties=species:S:1:pos:R:3 gdb_79757=T pbc="F F F"
C        0.17940000       1.60080000       0.04660000
C       -0.03810000       0.09100000      -0.03330000
C        0.64950000      -0.52580000      -1.24340000
C        1.87260000      -1.23800000      -0.76830000
C        1.79890000      -1.24920000       0.74170000
C        0.57760000      -2.03000000       1.09780000
C        0.04680000      -2.66410000      -0.17380000
N        0.71640000      -1.99350000      -1.30280000
N        0.55470000      -0.56120000       1.15720000
H        1.24870000       1.83570000       0.05690000
H       -0.27440000       2.10720000      -0.81140000
H       -0.26470000       1.99840000       0.96260000
H       -1.11580000      -0.11870000      -0.03720000
H        0.58510000      -0.02750000      -2.20810000
H        2.81500000      -1.29050000      -1.30020000
H        2.68080000      -1.14850000       1.36300000
H        0.44720000      -2.53560000       2.05180000
H        0.29240000      -3.73150000      -0.20280000
H       -1.04050000      -2.57250000      -0.27900000
