17
Properties=species:S:1:pos:R:3 gdb_45563=T pbc="F F F"
O        0.00420000      -0.04980000      -0.01260000
C       -0.06130000       1.14170000       0.04440000
C       -1.31010000       2.01970000       0.11470000
C       -0.78480000       3.40840000       0.46680000
C       -0.73840000       3.75190000       1.96730000
O        0.40950000       4.56650000       2.12400000
C        1.43190000       4.00730000       1.31040000
C        0.72380000       3.33000000       0.11770000
O        1.05010000       1.93320000       0.04480000
H       -1.80030000       1.98980000      -0.86360000
H       -2.01120000       1.60090000       0.84010000
H       -1.27650000       4.21040000      -0.08550000
H       -1.60540000       4.31720000       2.31660000
H       -0.65770000       2.83040000       2.56970000
H        2.10290000       4.81720000       1.01430000
H        2.01000000       3.24460000       1.85170000
H        0.98100000       3.78120000      -0.84350000
