14
Properties=species:S:1:pos:R:3 gdb_865=T pbc="F F F"
C       -0.05740000       1.49600000       0.06360000
C       -0.00700000       0.00990000      -0.05000000
C       -0.03900000      -0.82390000      -1.13840000
C        0.03980000      -2.17940000      -0.67970000
C        0.11750000      -2.11440000       0.68830000
O        0.21100000      -3.05060000       1.66970000
N        0.08990000      -0.80390000       1.07160000
H        0.83960000       1.91120000       0.54200000
H       -0.13120000       1.93790000      -0.93300000
H       -0.92320000       1.84380000       0.64270000
H       -0.11160000      -0.50240000      -2.16670000
H        0.03900000      -3.07620000      -1.27960000
H        0.21910000      -3.91800000       1.25460000
H        0.13420000      -0.49720000       2.02800000
