19
Properties=species:S:1:pos:R:3 gdb_78973=T pbc="F F F"
C       -0.19310000       1.46960000       0.03460000
N       -0.00020000       0.02760000       0.00340000
C        0.91170000      -0.43450000      -1.04600000
C        2.33650000       0.02840000      -0.64610000
C        2.26090000      -0.25980000       0.80730000
C        0.75780000      -0.53560000       1.14520000
C        0.64540000      -2.03530000       0.80250000
C        1.36120000      -1.85800000      -0.53370000
N        2.72790000      -1.32310000      -0.14600000
H        0.74620000       2.04240000       0.12390000
H       -0.69810000       1.78660000      -0.88350000
H       -0.83560000       1.73410000       0.88010000
H        0.54900000      -0.29300000      -2.06240000
H        3.03270000       0.69720000      -1.14020000
H        2.99250000       0.09320000       1.52240000
H        0.40410000      -0.19310000       2.11620000
H        1.21590000      -2.68670000       1.46970000
H       -0.39280000      -2.36250000       0.73100000
H        1.40960000      -2.68560000      -1.23770000
