15
Properties=species:S:1:pos:R:3 gdb_18899=T pbc="F F F"
C       -0.05590000       1.47700000       0.01980000
C       -0.06900000      -0.01010000      -0.07210000
C        0.78590000      -0.99570000      -0.79400000
C       -0.29980000      -2.09240000      -0.70760000
C       -0.22380000      -1.94760000       0.80370000
N        0.87460000      -0.89240000       0.71070000
C       -1.19750000      -1.09840000       0.05080000
O       -2.55530000      -1.03940000       0.18720000
H        0.97640000       1.84080000       0.01640000
H       -0.58380000       1.93500000      -0.82410000
H       -0.53190000       1.81700000       0.94580000
H        1.64970000      -0.85810000      -1.43580000
H       -0.57000000      -2.93970000      -1.32170000
H       -0.33740000      -2.65880000       1.61180000
H       -2.94990000      -0.88880000      -0.67980000
