23
Properties=species:S:1:pos:R:3 gdb_122393=T pbc="F F F"
C       -0.22310000       1.51100000       0.01400000
C       -0.03290000      -0.00800000       0.00240000
C        0.72880000      -0.52970000       1.22570000
C        0.92720000      -2.04960000       1.21910000
C        1.67590000      -2.57370000       2.43910000
C        0.93920000      -2.52760000       3.81890000
C        1.33110000      -4.00010000       4.02000000
O        1.32170000      -4.73980000       4.96030000
C        1.83050000      -4.12330000       2.57190000
H        0.74130000       2.03090000       0.03020000
H       -0.76990000       1.85250000      -0.87040000
H       -0.78530000       1.83290000       0.89770000
H       -1.01330000      -0.50010000      -0.04970000
H        0.50210000      -0.30430000      -0.90970000
H        1.70970000      -0.03670000       1.28000000
H        0.19290000      -0.23500000       2.13870000
H       -0.05200000      -2.54670000       1.15890000
H        1.47160000      -2.34180000       0.31070000
H        2.65280000      -2.08490000       2.51400000
H        1.29470000      -1.82830000       4.57990000
H       -0.14730000      -2.41140000       3.72380000
H        1.12200000      -4.68040000       1.94730000
H        2.82360000      -4.56080000       2.44110000
