16
Properties=species:S:1:pos:R:3 gdb_80194=T pbc="F F F"
O        0.06850000       1.28430000      -0.19680000
C       -0.02570000      -0.09010000      -0.03520000
C       -0.45210000      -0.66360000       1.29550000
O       -0.97330000       0.25540000       2.24040000
C       -2.07270000       0.86330000       1.72910000
N       -2.67040000       1.87180000       2.19270000
C       -2.51710000       0.18910000       0.42940000
O       -2.72820000       1.17230000      -0.58010000
C       -1.38190000      -0.75390000       0.10270000
H       -0.74190000       1.57500000      -0.64140000
H        0.73150000      -0.66270000      -0.56910000
H        0.04230000      -1.50320000       1.76550000
H       -2.20950000       2.24760000       3.02100000
H       -3.44550000      -0.36990000       0.60960000
H       -3.14340000       1.91950000      -0.12230000
H       -1.59420000      -1.68510000      -0.40610000
