21
Properties=species:S:1:pos:R:3 gdb_62942=T pbc="F F F"
C       -0.06430000       1.54470000      -0.11880000
C       -0.01390000       0.02260000      -0.00860000
C       -1.39810000      -0.59520000      -0.21300000
C        1.04740000      -0.66180000      -0.89840000
O        2.34200000      -0.17860000      -0.51000000
C        1.75010000      -1.23960000       0.24980000
C        0.76330000      -0.59220000       1.25290000
C        1.37420000       0.35970000       2.26890000
O       -0.06150000      -1.55870000       1.88230000
H        0.93660000       1.98080000      -0.09680000
H       -0.54030000       1.84150000      -1.06030000
H       -0.65140000       1.98140000       0.69660000
H       -1.80220000      -0.27770000      -1.18080000
H       -1.36610000      -1.68600000      -0.19070000
H       -2.09160000      -0.26930000       0.56740000
H        0.93970000      -1.02370000      -1.91580000
H        2.30870000      -2.16450000       0.35410000
H        2.07030000       1.05060000       1.79030000
H        0.59720000       0.93320000       2.78360000
H        1.93400000      -0.20570000       3.02590000
H        0.42670000      -1.91420000       2.63260000
