15
Properties=species:S:1:pos:R:3 gdb_48293=T pbc="F F F"
O       -0.12790000       0.05870000      -0.03890000
C       -0.02100000       1.25490000      -0.01940000
C        1.34950000       1.97530000      -0.02450000
N        2.50360000       1.09130000       0.02710000
C        2.65050000       0.38540000       1.30120000
C        3.89970000      -0.38070000       1.31940000
N        4.87150000      -1.00420000       1.33600000
C        1.37250000       2.82660000      -1.21350000
C        1.32310000       3.48620000      -2.21630000
H       -0.90150000       1.93220000      -0.01460000
H        1.36890000       2.62010000       0.86870000
H        2.44720000       0.41980000      -0.73240000
H        2.69700000       1.12910000       2.10680000
H        1.82400000      -0.30080000       1.53640000
H        1.30920000       4.08460000      -3.09430000
