20
Properties=species:S:1:pos:R:3 gdb_89074=T pbc="F F F"
O       -0.64450000       1.32530000       0.27170000
C       -0.39390000      -0.04640000       0.29230000
C       -0.87160000      -0.89740000       1.45000000
C       -1.54870000      -0.99980000       0.10860000
O       -2.82130000      -0.41990000       0.03040000
C       -3.21600000      -0.11850000      -1.30610000
C       -4.65410000       0.34860000      -1.30320000
C       -5.65440000      -0.25950000      -0.39670000
N       -5.18760000       1.12680000      -0.17760000
H       -1.59150000       1.43770000       0.42110000
H        0.56320000      -0.27220000      -0.16530000
H       -0.26720000      -1.73160000       1.78900000
H       -1.42750000      -0.38800000       2.23050000
H       -1.43270000      -1.90450000      -0.48760000
H       -2.55630000       0.65590000      -1.72430000
H       -3.11650000      -1.01490000      -1.93830000
H       -4.98280000       0.70270000      -2.27850000
H       -6.68970000      -0.35080000      -0.71220000
H       -5.30780000      -1.02590000       0.28950000
H       -4.50300000       1.10760000       0.57550000
