21
Properties=species:S:1:pos:R:3 gdb_105032=T pbc="F F F"
C       -0.22740000       1.58530000      -0.07820000
C       -0.23650000       0.06100000      -0.22000000
C        0.66730000      -0.49630000      -1.31160000
C        1.09640000       0.31850000      -2.45800000
O        1.98750000       0.05800000      -1.36360000
C        0.65210000      -2.02180000      -1.51030000
C        0.98580000      -2.79840000      -0.22890000
C       -0.69050000      -2.44790000      -2.08740000
O       -0.92060000      -2.55160000      -3.26440000
H        0.79770000       1.95730000      -0.00130000
H       -0.70980000       2.07670000      -0.92830000
H       -0.76840000       1.88500000       0.82340000
H        0.07420000      -0.38650000       0.73180000
H       -1.26060000      -0.29210000      -0.39980000
H        1.34730000      -0.17460000      -3.39540000
H        0.77140000       1.35130000      -2.55130000
H        1.40160000      -2.23630000      -2.27760000
H        0.18900000      -2.71940000       0.51750000
H        1.12970000      -3.86080000      -0.44730000
H        1.90860000      -2.41570000       0.21530000
H       -1.48340000      -2.65750000      -1.33060000
