20
Properties=species:S:1:pos:R:3 gdb_61649=T pbc="F F F"
C       -0.39090000       1.29910000       0.05450000
N        0.08100000      -0.07540000       0.08090000
C        1.47170000      -0.31810000      -0.28380000
C        1.01120000      -0.53350000       1.11790000
C        1.51880000       0.33930000       2.24850000
C        0.57980000       0.29870000       3.47440000
O        0.44850000      -1.00500000       3.97140000
C        1.08960000       1.22620000       4.55720000
O        1.35030000       0.82800000       5.66690000
H        0.36480000       2.05770000       0.31650000
H       -0.74250000       1.52440000      -0.95750000
H       -1.24140000       1.40890000       0.73590000
H        1.65920000      -1.15770000      -0.94850000
H        2.10660000       0.55070000      -0.46380000
H        0.80930000      -1.55310000       1.43810000
H        2.50150000      -0.03220000       2.56450000
H        1.65560000       1.37550000       1.92180000
H       -0.40690000       0.69010000       3.16560000
H        0.73570000      -0.96230000       4.89730000
H        1.21600000       2.29190000       4.27510000
