16
Properties=species:S:1:pos:R:3 gdb_65821=T pbc="F F F"
C       -0.03640000       1.52990000       0.07030000
C        0.03690000       0.00920000      -0.03130000
C        0.82490000      -0.53090000      -1.24240000
C        1.47860000      -1.80230000      -0.69090000
O        2.03710000      -2.66060000      -1.31450000
C        1.27670000      -1.76040000       0.82610000
O        0.75550000      -0.47140000       1.11270000
C       -1.33330000      -0.56790000      -0.02200000
N       -2.39330000      -1.02780000      -0.01180000
H        0.97850000       1.93480000       0.07560000
H       -0.58830000       1.94620000      -0.77580000
H       -0.53800000       1.82040000       0.99600000
H        0.22340000      -0.74190000      -2.12710000
H        1.61300000       0.17840000      -1.51800000
H        0.58230000      -2.56100000       1.12280000
H        2.21720000      -1.89450000       1.36620000
