18
Properties=species:S:1:pos:R:3 gdb_50108=T pbc="F F F"
O        0.10690000      -0.02050000      -0.79240000
C        0.08180000       1.02910000      -0.19830000
C        1.30010000       1.83090000       0.09040000
C        1.18830000       3.33250000       0.02290000
N        1.42460000       2.67900000       1.28490000
C        0.37210000       2.70770000       2.29980000
C        0.69940000       3.81660000       3.31740000
C       -0.29410000       3.89970000       4.37940000
C       -1.13050000       3.94250000       5.24140000
H       -0.87640000       1.46610000       0.15840000
H        2.22320000       1.35090000      -0.22400000
H        2.01170000       3.89850000      -0.40380000
H        0.19650000       3.74560000      -0.16590000
H       -0.63250000       2.88700000       1.89040000
H        0.35460000       1.73930000       2.80930000
H        1.69420000       3.62580000       3.73570000
H        0.76500000       4.77760000       2.79170000
H       -1.86040000       3.99100000       6.01110000
