17
Properties=species:S:1:pos:R:3 gdb_96791=T pbc="F F F"
C       -0.05120000       1.40500000       0.06350000
N       -0.05250000      -0.04920000       0.02710000
C        0.56250000      -0.62840000      -0.91580000
N        1.26680000      -0.06310000      -1.98880000
C        1.64370000      -0.97380000      -2.97760000
O        2.11940000      -0.67960000      -4.04580000
C        1.32400000      -2.33840000      -2.43340000
C        2.03560000      -2.68710000      -1.14370000
C        0.64200000      -2.11060000      -1.09830000
H        0.93940000       1.80510000       0.32490000
H       -0.35330000       1.85800000      -0.89370000
H       -0.75360000       1.74730000       0.82700000
H        1.41730000       0.92530000      -2.11340000
H        1.05090000      -3.11480000      -3.13440000
H        2.13210000      -3.74320000      -0.91930000
H        2.87150000      -2.07540000      -0.82270000
H       -0.18170000      -2.70970000      -0.73640000
