23
Properties=species:S:1:pos:R:3 gdb_66217=T pbc="F F F"
C        0.07540000       1.54070000       0.43040000
C        0.00840000       0.06520000       0.07970000
C       -1.33840000      -0.43350000      -0.42580000
C       -1.78540000       0.18810000      -1.75540000
C       -3.12070000      -0.40120000      -2.25430000
C       -3.56940000       0.18300000      -3.51230000
C       -3.91660000       0.68090000      -4.55000000
C        1.24930000      -0.58170000      -0.49180000
C        0.82140000      -0.88620000       0.92530000
H        1.05960000       1.80530000       0.82930000
H       -0.10510000       2.17700000      -0.44280000
H       -0.67160000       1.79970000       1.19060000
H       -1.29090000      -1.52430000      -0.54290000
H       -2.10520000      -0.24310000       0.33920000
H       -1.89920000       1.27230000      -1.65280000
H       -1.01560000       0.02740000      -2.51870000
H       -3.01890000      -1.48830000      -2.37330000
H       -3.89340000      -0.25410000      -1.48790000
H       -4.23300000       1.11360000      -5.46630000
H        1.12560000      -1.35980000      -1.23820000
H        2.13050000       0.03390000      -0.63900000
H        1.41170000      -0.47320000       1.73670000
H        0.41090000      -1.86890000       1.13430000
