17
Properties=species:S:1:pos:R:3 gdb_55334=T pbc="F F F"
N       -0.04690000       1.30940000      -0.03080000
C        0.01240000      -0.05530000       0.22510000
O        1.04570000      -0.64590000       0.47320000
N       -1.20450000      -0.68800000       0.15160000
C       -2.48440000      -0.30170000      -0.44830000
C       -2.90820000      -1.79320000      -0.39120000
C       -1.43660000      -2.13720000       0.03690000
C       -0.65500000      -2.83590000      -0.97490000
C       -0.06040000      -3.43590000      -1.82960000
H        0.78680000       1.79440000       0.26490000
H       -0.90590000       1.79580000       0.17730000
H       -3.08160000       0.38890000       0.15880000
H       -2.39150000       0.10580000      -1.46260000
H       -3.63930000      -2.01390000       0.38670000
H       -3.22310000      -2.23590000      -1.33410000
H       -1.34780000      -2.65730000       0.99660000
H        0.49590000      -3.95600000      -2.56970000
