20
Properties=species:S:1:pos:R:3 gdb_115417=T pbc="F F F"
C       -0.26530000       1.57370000       0.16950000
C       -0.06810000       0.05730000       0.06740000
C       -1.37850000      -0.72210000      -0.06680000
C       -2.17030000      -0.43160000      -1.35510000
O       -2.87300000      -1.63520000      -1.70630000
C       -2.53190000      -2.67740000      -0.80690000
C       -1.21010000      -2.24890000      -0.14850000
C       -3.60480000      -2.87290000       0.19580000
N       -4.43640000      -3.02460000       0.98380000
H        0.69300000       2.08680000       0.29160000
H       -0.74450000       1.97930000      -0.72790000
H       -0.89440000       1.83370000       1.02770000
H        0.57460000      -0.17570000      -0.79240000
H        0.46670000      -0.30010000       0.95590000
H       -2.01760000      -0.49320000       0.79570000
H       -2.89710000       0.37770000      -1.23760000
H       -1.49760000      -0.17310000      -2.18490000
H       -2.43780000      -3.60670000      -1.37860000
H       -0.38340000      -2.51050000      -0.81780000
H       -1.03920000      -2.72430000       0.81900000
