20
Properties=species:S:1:pos:R:3 gdb_101807=T pbc="F F F"
N       -0.20930000       1.02300000      -0.08680000
H       -0.50270000       0.09100000      -0.38120000
H        0.80540000       1.09610000      -0.17960000
H       -0.64280000       1.76440000      -0.67600000
C       -0.67410000       1.40670000       1.31540000
C       -0.63390000       2.93000000       1.37990000
O       -1.15440000       3.32840000       0.09740000
C       -1.42650000       3.48820000       2.54380000
C       -1.51080000       5.01490000       2.53780000
C       -1.58600000       5.58190000       4.04780000
O       -1.10970000       4.79910000       4.89530000
O       -2.07220000       6.71310000       4.13150000
H       -1.69930000       1.04160000       1.39870000
H       -0.03480000       0.91790000       2.05000000
H        0.41370000       3.26420000       1.45590000
H       -1.54340000       4.20750000       0.21290000
H       -2.42840000       3.03740000       2.54710000
H       -0.94540000       3.24730000       3.50490000
H       -0.59810000       5.45040000       2.10480000
H       -2.36610000       5.40400000       1.97410000
