14
Properties=species:S:1:pos:R:3 gdb_16086=T pbc="F F F"
C       -0.00550000      -1.17550000      -0.00560000
C        0.02610000       0.02620000      -0.01050000
C       -0.00520000       1.45870000       0.00200000
C        0.41490000       2.24620000      -1.19170000
N        1.29590000       2.21210000       0.00010000
C        0.99690000       3.30760000       0.87130000
N       -0.12970000       3.35860000       1.45490000
C       -0.89800000       2.17970000       1.02920000
H       -0.01580000      -2.23740000      -0.00480000
H        0.80810000       1.72240000      -2.05650000
H       -0.11160000       3.17480000      -1.39890000
H        1.77370000       4.05360000       1.01300000
H       -1.86680000       2.48850000       0.62350000
H       -1.09250000       1.53270000       1.89070000
