14
Properties=species:S:1:pos:R:3 gdb_19248=T pbc="F F F"
O        0.01120000       1.38260000       0.23010000
C        0.02370000       0.00680000       0.04550000
C       -1.33340000      -0.71480000       0.04560000
O       -2.06470000      -0.14960000      -1.05460000
C       -1.14020000      -1.20480000      -1.32700000
C        0.25850000      -0.56890000      -1.43940000
C        0.47710000       0.38590000      -2.50220000
C        0.64640000       1.20710000      -3.36420000
H       -0.64420000       1.73830000      -0.38440000
H        0.74610000      -0.41610000       0.74670000
H       -1.91000000      -1.11330000       0.87200000
H       -1.52020000      -2.08990000      -1.82230000
H        1.04560000      -1.32930000      -1.41880000
H        0.79980000       1.92260000      -4.13370000
