16
Properties=species:S:1:pos:R:3 gdb_32720=T pbc="F F F"
C       -0.00730000       1.38120000       0.00200000
O       -0.01460000      -0.04090000       0.02830000
C        0.58290000      -0.64000000      -1.01650000
N        0.62630000      -1.90460000      -1.07020000
C        1.24800000      -2.49890000      -2.15950000
C        1.36940000      -3.85520000      -2.34830000
N        2.04450000      -3.99800000      -3.54100000
C        2.29850000      -2.74580000      -4.01470000
N        1.83560000      -1.81820000      -3.21300000
H        1.01520000       1.77730000       0.01930000
H       -0.52920000       1.76880000      -0.88120000
H       -0.53280000       1.70780000       0.90010000
H        1.00440000       0.02980000      -1.77350000
H        1.04430000      -4.69310000      -1.75660000
H        2.30070000      -4.86650000      -3.97830000
H        2.82180000      -2.57790000      -4.94460000
