20
Properties=species:S:1:pos:R:3 gdb_111307=T pbc="F F F"
C       -0.32980000       1.54850000       0.16690000
C       -0.09620000       0.04690000       0.13350000
O       -1.24410000      -0.67320000       0.55140000
C        0.37770000      -0.57180000      -1.19140000
N        1.68760000       0.04890000      -1.49860000
C        1.61320000      -1.10480000      -0.56400000
C        1.22480000      -0.53830000       0.80540000
C        2.20280000       0.37310000       1.51620000
O        1.56110000       0.84020000       2.70220000
H        0.49180000       2.07530000      -0.32360000
H       -1.26270000       1.78800000      -0.35300000
H       -0.39620000       1.90180000       1.20080000
H       -1.45200000      -0.38610000       1.44760000
H       -0.25390000      -0.98960000      -1.96550000
H        1.98520000      -0.31570000      -2.40280000
H        2.15770000      -2.01810000      -0.77100000
H        0.90960000      -1.34110000       1.47810000
H        3.11970000      -0.18860000       1.76070000
H        2.48920000       1.20370000       0.85860000
H        2.12580000       1.50500000       3.10680000
