20
Properties=species:S:1:pos:R:3 gdb_84992=T pbc="F F F"
C        0.61180000       1.37790000       0.20200000
C       -0.14550000       0.09200000      -0.10370000
C        0.40530000      -0.71340000      -1.29540000
C        1.37410000      -1.71020000      -0.65000000
C        1.49240000      -3.05560000      -1.35510000
O        2.65330000      -1.06620000      -0.56590000
C        0.82370000      -1.82290000       0.77150000
N        1.18970000      -2.71110000       1.59370000
O       -0.04250000      -0.81380000       1.02900000
H        1.68270000       1.17640000       0.28110000
H        0.45210000       2.10490000      -0.60100000
H        0.25680000       1.81640000       1.13870000
H       -1.21290000       0.30230000      -0.21680000
H       -0.40290000      -1.25300000      -1.79610000
H        0.91400000      -0.08680000      -2.02990000
H        1.94090000      -2.91830000      -2.34310000
H        2.12070000      -3.72820000      -0.76500000
H        0.51380000      -3.53110000      -1.47090000
H        3.17790000      -1.57900000       0.06160000
H        0.76050000      -2.56410000       2.50870000
