13
Properties=species:S:1:pos:R:3 gdb_123984=T pbc="F F F"
C        0.01300000       1.49410000      -0.04630000
N        1.36940000       2.02460000       0.10940000
C        2.36830000       1.27340000       0.25080000
O        2.43580000      -0.10610000       0.29140000
C        1.22290000      -0.70980000       0.15510000
C        0.87210000      -2.01860000       0.14210000
O       -0.46320000      -2.10160000      -0.02150000
N       -1.00750000      -0.81930000      -0.11880000
C        0.00810000      -0.00270000      -0.01200000
H       -0.61470000       1.91370000       0.74860000
H       -0.39940000       1.87320000      -0.98880000
H        3.37070000       1.67490000       0.36570000
H        1.41170000      -2.94640000       0.23070000
