21
Properties=species:S:1:pos:R:3 gdb_85834=T pbc="F F F"
C       -0.48500000       1.36430000      -0.12510000
C        0.01200000      -0.06410000       0.01300000
O        1.18190000      -0.31080000      -0.80940000
C        2.03390000      -0.53640000       0.34860000
C        2.74340000      -1.88440000       0.25620000
C        3.00110000       0.54880000       0.51550000
C        3.80720000       1.43030000       0.65600000
C        0.78690000      -0.47070000       1.29550000
C        0.79760000       0.43310000       2.51690000
H        0.30240000       2.08470000       0.11060000
H       -0.80830000       1.54140000      -1.15560000
H       -1.33990000       1.54520000       0.53580000
H       -0.79140000      -0.76190000      -0.25580000
H        3.43710000      -1.88930000      -0.58900000
H        3.31180000      -2.08310000       1.17020000
H        2.00760000      -2.68010000       0.11070000
H        4.51720000       2.21190000       0.77050000
H        0.51910000      -1.48760000       1.59610000
H        1.10350000       1.45260000       2.27260000
H       -0.19630000       0.47190000       2.97550000
H        1.49460000       0.05270000       3.27090000
