20
Properties=species:S:1:pos:R:3 gdb_64309=T pbc="F F F"
C       -0.13700000       1.52690000       0.11330000
C       -0.00790000      -0.00500000      -0.00440000
C       -1.39690000      -0.64320000      -0.08240000
N        0.72440000      -0.34600000      -1.24100000
C        2.14060000       0.00800000      -1.24370000
C        2.86490000      -0.29150000       0.03990000
C        2.20770000      -0.56580000       1.17260000
C        0.73140000      -0.51080000       1.25520000
O        0.14370000      -0.79900000       2.28020000
H        0.83700000       2.01530000       0.21420000
H       -0.62860000       1.92090000      -0.78070000
H       -0.73130000       1.78570000       0.99340000
H       -1.95190000      -0.23040000      -0.92880000
H       -1.32240000      -1.72860000      -0.21440000
H       -1.94680000      -0.46350000       0.84220000
H        0.64490000      -1.34810000      -1.38590000
H        2.62480000      -0.51560000      -2.07640000
H        2.25620000       1.07910000      -1.47350000
H        3.95330000      -0.26150000       0.02270000
H        2.71990000      -0.80500000       2.09970000
