21
Properties=species:S:1:pos:R:3 gdb_115476=T pbc="F F F"
C       -0.41910000       1.44080000      -0.15860000
C        0.12410000       0.00790000      -0.01060000
C        0.91180000      -0.46280000      -1.19580000
C        2.20140000      -0.78770000      -1.26210000
C        2.56850000      -1.24420000      -2.64300000
C        3.01920000      -2.70590000      -2.74020000
O        3.15770000      -3.10150000      -4.08890000
O        1.35550000      -1.10300000      -3.40360000
C        0.29710000      -0.65110000      -2.56290000
H        0.39690000       2.15400000      -0.30990000
H       -1.10180000       1.52780000      -1.00940000
H       -0.96870000       1.73780000       0.73950000
H        0.75180000      -0.05510000       0.88460000
H       -0.72140000      -0.67470000       0.15380000
H        2.91020000      -0.75970000      -0.44320000
H        3.34160000      -0.61530000      -3.11210000
H        3.99730000      -2.83320000      -2.26260000
H        2.29250000      -3.33620000      -2.20170000
H        2.33900000      -2.82890000      -4.52180000
H       -0.52160000      -1.38910000      -2.54770000
H       -0.12010000       0.28160000      -2.97240000
