16
Properties=species:S:1:pos:R:3 gdb_16900=T pbc="F F F"
O       -0.20540000       1.45750000      -0.21150000
C        0.02250000       0.06460000      -0.02440000
C       -1.35890000      -0.57780000       0.15770000
C       -1.32750000      -2.09430000       0.01490000
O       -1.71240000      -2.62140000      -1.26080000
C       -0.32740000      -2.70740000      -0.87030000
C        0.62970000      -1.81090000      -1.57110000
C        0.78180000      -0.54510000      -1.18510000
H        0.64610000       1.90610000      -0.20940000
H        0.61450000      -0.09290000       0.89460000
H       -1.77010000      -0.28700000       1.12840000
H       -2.01670000      -0.16890000      -0.61510000
H       -1.70230000      -2.67420000       0.85750000
H        0.00830000      -3.72580000      -0.67610000
H        1.19770000      -2.21810000      -2.40270000
H        1.48640000       0.10940000      -1.69460000
