16
Properties=species:S:1:pos:R:3 gdb_94497=T pbc="F F F"
O        0.45350000       0.93700000      -0.73140000
C        0.07960000      -0.15100000       0.04730000
C       -0.16550000      -0.00420000       1.57010000
C       -1.30690000      -1.04650000       1.45160000
C       -1.37420000      -0.77520000      -0.09250000
C       -2.36220000       0.20310000      -0.47220000
C       -3.15950000       1.05880000      -0.78640000
C       -4.07250000       2.01060000      -1.13650000
N       -4.84770000       2.82440000      -1.43200000
H       -0.20760000       1.63190000      -0.62720000
H        0.80880000      -0.93940000      -0.15720000
H        0.66840000      -0.21900000       2.24040000
H       -0.56050000       0.98980000       1.80300000
H       -0.96680000      -2.06650000       1.64220000
H       -2.22090000      -0.86290000       2.01550000
H       -1.45110000      -1.65240000      -0.74090000
