19
Properties=species:S:1:pos:R:3 gdb_76504=T pbc="F F F"
C       -0.11170000       1.51600000       0.01990000
C        0.02670000       0.00950000       0.03320000
C        1.38860000      -0.64630000      -0.12540000
O        2.54860000       0.13460000      -0.17420000
C        0.68740000      -0.68890000       1.19440000
C        1.26210000      -0.09880000       2.50830000
C        0.79540000      -1.39110000       3.20350000
O       -0.61870000      -1.50500000       3.00620000
C        0.25320000      -1.93210000       1.94660000
H        0.79320000       1.99580000       0.40120000
H       -0.28600000       1.88740000      -0.99650000
H       -0.95450000       1.83830000       0.63970000
H       -0.79880000      -0.52950000      -0.42750000
H        1.44060000      -1.57150000      -0.70190000
H        2.60880000       0.52900000      -1.05080000
H        2.34770000       0.01410000       2.46640000
H        0.80500000       0.81840000       2.88740000
H        1.22050000      -1.89420000       4.06380000
H        0.14430000      -2.95040000       1.59040000
