18
Properties=species:S:1:pos:R:3 gdb_90689=T pbc="F F F"
C       -0.19150000       1.39910000       0.09840000
N        0.06620000      -0.03080000       0.09510000
H       -1.02170000      -1.37740000       0.02970000
C        1.06770000      -0.52110000      -0.91160000
C        1.85990000      -1.21140000       0.19910000
C        0.93220000      -0.54520000       1.19090000
C        0.96840000      -2.04660000       1.11720000
C       -0.17080000      -2.94670000       0.68800000
O       -0.14560000      -4.12950000       0.91140000
O       -1.19600000      -2.35770000       0.06020000
H        0.73030000       2.00040000       0.16780000
H       -0.71480000       1.67350000      -0.82200000
H       -0.83590000       1.65340000       0.94530000
H        0.63640000      -1.13240000      -1.70970000
H        1.63270000       0.31120000      -1.34460000
H        2.93330000      -1.34050000       0.21280000
H        1.10710000       0.03370000       2.09030000
H        1.54960000      -2.51120000       1.90660000
