18
Properties=species:S:1:pos:R:3 gdb_124468=T pbc="F F F"
C       -0.10690000       1.56270000       0.07880000
C        0.00900000       0.03570000       0.01380000
C        0.70030000      -0.51890000       1.26690000
O       -1.29290000      -0.56980000       0.00720000
C        0.74900000      -0.39670000      -1.23090000
C        1.78150000       0.11110000      -1.98840000
N        2.05540000      -0.75420000      -3.00640000
N        1.24810000      -1.77290000      -2.92760000
N        0.46220000      -1.56410000      -1.85550000
H        0.88000000       2.03200000       0.12670000
H       -0.61870000       1.95400000      -0.80690000
H       -0.67170000       1.85090000       0.96940000
H        0.14300000      -0.22040000       2.15910000
H        0.73510000      -1.61070000       1.22850000
H        1.72350000      -0.14250000       1.33990000
H       -1.82470000      -0.11800000      -0.65820000
H        2.33500000       1.02790000      -1.86660000
H       -0.26550000      -2.21710000      -1.60910000
