10
Properties=species:S:1:pos:R:3 gdb_2569=T pbc="F F F"
O       -0.09520000       0.23550000       0.76720000
C        0.26160000       0.87890000      -0.17910000
C        1.38430000       1.89930000      -0.07540000
C        1.53860000       2.63150000       1.21230000
O        2.41220000       1.57960000       0.86360000
C        1.80910000       2.51290000      -1.31590000
N        2.09800000       2.97890000      -2.33310000
H       -0.20150000       0.79070000      -1.18200000
H        1.96100000       3.63370000       1.19020000
H        0.82080000       2.40320000       1.99730000
