16
Properties=species:S:1:pos:R:3 gdb_36353=T pbc="F F F"
N       -0.04490000      -0.99660000      -0.85630000
C       -0.03580000       0.03920000      -0.34540000
C       -0.00920000       1.34480000       0.31390000
C        1.38370000       1.95160000       0.34270000
O        1.80980000       2.62440000      -0.84960000
C        1.58010000       3.39900000       0.30800000
C        0.60770000       4.57170000       0.41100000
O        1.59770000       5.33030000       1.13810000
C        2.60500000       4.30500000       0.98140000
H       -0.69480000       2.02160000      -0.20590000
H       -0.37890000       1.22520000       1.33970000
H        2.14870000       1.32740000       0.80480000
H        0.35280000       5.02670000      -0.55430000
H       -0.30690000       4.41590000       0.99660000
H        3.01080000       3.97040000       1.94300000
H        3.42450000       4.61730000       0.32230000
