21
Properties=species:S:1:pos:R:3 gdb_62612=T pbc="F F F"
C       -0.12150000       1.54170000       0.00730000
C       -0.02580000       0.01290000      -0.00020000
C       -1.40760000      -0.55470000      -0.33930000
C        1.21900000      -0.63750000      -0.68500000
C        2.14300000      -0.18130000       0.51050000
C        3.16930000      -1.27810000       0.73240000
C        2.47920000      -2.40350000       0.54600000
C        1.07640000      -1.92060000       0.22300000
C        0.78470000      -0.67380000       1.14570000
H        0.82020000       2.04140000       0.24110000
H       -0.45520000       1.90820000      -0.97060000
H       -0.86280000       1.87420000       0.74350000
H       -1.74180000      -0.18750000      -1.31680000
H       -1.44130000      -1.64510000      -0.36940000
H       -2.14830000      -0.22210000       0.39750000
H        1.48370000      -0.62410000      -1.74760000
H        2.45340000       0.85660000       0.60470000
H        4.21120000      -1.13470000       0.98260000
H        2.80140000      -3.43390000       0.60190000
H        0.29980000      -2.65530000       0.02410000
H        0.54380000      -0.70260000       2.21360000
