12
Properties=species:S:1:pos:R:3 gdb_43567=T pbc="F F F"
O       -0.00250000       0.07350000      -0.53190000
C        0.02150000       1.17390000      -0.10550000
O       -1.02640000       1.91770000       0.39110000
C       -0.17240000       3.06040000       0.69540000
C       -0.14770000       3.37300000       2.11730000
N       -0.12460000       3.65100000       3.23770000
C        1.06350000       2.30370000       0.09990000
C        2.20620000       2.02840000       0.93360000
C        3.14910000       1.79560000       1.63920000
H       -0.48790000       3.93410000       0.12150000
H        1.35940000       2.72930000      -0.86420000
H        3.97980000       1.58710000       2.26830000
