21
Properties=species:S:1:pos:R:3 gdb_59711=T pbc="F F F"
C       -0.01930000       1.49750000      -0.09090000
C       -0.00640000      -0.03420000      -0.01040000
C        0.82940000      -0.51930000       1.18200000
C       -1.43380000      -0.59030000       0.05760000
O       -2.17030000      -0.11090000      -1.07440000
C       -3.11550000      -1.07940000      -1.50790000
C       -2.60040000      -2.40610000      -0.99830000
O       -1.21980000      -2.62650000      -1.30760000
C       -1.55970000      -2.10200000      -0.01710000
H        0.99870000       1.88660000      -0.19510000
H       -0.61070000       1.83950000      -0.94240000
H       -0.44970000       1.93380000       0.81910000
H        0.43050000      -0.43140000      -0.93450000
H        0.92030000      -1.60970000       1.20670000
H        1.84130000      -0.10570000       1.13190000
H        0.38980000      -0.19500000       2.13330000
H       -1.91540000      -0.25410000       0.99460000
H       -4.11740000      -0.89050000      -1.08780000
H       -3.17990000      -1.02290000      -2.59970000
H       -3.23720000      -3.28560000      -0.95980000
H       -1.33430000      -2.73250000       0.83780000
