19
Properties=species:S:1:pos:R:3 gdb_37320=T pbc="F F F"
C       -0.01450000       1.54870000       0.05550000
C        1.28800000       0.79770000      -0.02560000
C       -0.04560000       0.04590000      -0.03300000
C       -0.48060000      -0.66400000      -1.28180000
N       -0.88520000       0.13600000      -2.44630000
C        0.36610000      -0.63040000      -2.52020000
C        1.67440000       0.10710000      -2.51290000
N        1.66590000       1.57410000      -2.43210000
C        2.13100000       0.80810000      -1.26730000
H       -0.27960000       2.00950000       1.00050000
H       -0.31300000       2.08710000      -0.83590000
H        1.86570000       0.71480000       0.88930000
H       -0.28150000      -0.49560000       0.87740000
H       -1.02300000      -1.58890000      -1.09970000
H       -1.61690000      -0.33770000      -2.96760000
H        0.37070000      -1.52950000      -3.13230000
H        2.44640000      -0.35950000      -3.12080000
H        2.45440000       1.95730000      -2.94500000
H        3.20160000       0.79240000      -1.07610000
