21
Properties=species:S:1:pos:R:3 gdb_119783=T pbc="F F F"
C        0.08820000       1.53470000       0.07590000
C        0.14470000       0.00540000       0.06490000
C        0.55170000      -0.56520000      -1.30880000
C        0.64660000      -2.05200000      -1.32830000
C       -0.03010000      -3.00090000      -1.98370000
C        0.65690000      -4.28200000      -1.48100000
C        0.71440000      -4.02920000       0.05600000
C        1.64530000      -2.92260000      -0.52230000
O        2.07510000      -3.89660000      -1.52980000
H        1.06290000       1.96850000      -0.17350000
H       -0.63630000       1.90920000      -0.65570000
H       -0.20440000       1.91510000       1.05940000
H        0.85390000      -0.34190000       0.82710000
H       -0.83180000      -0.40740000       0.34560000
H       -0.16710000      -0.23340000      -2.06780000
H        1.52310000      -0.13250000      -1.59070000
H       -0.84110000      -2.92470000      -2.69330000
H        0.43120000      -5.24580000      -1.93520000
H       -0.20000000      -3.73430000       0.57510000
H        1.26630000      -4.80420000       0.59350000
H        2.45760000      -2.45200000       0.03170000
