20
Properties=species:S:1:pos:R:3 gdb_53954=T pbc="F F F"
C        0.27900000       1.90630000       0.26320000
C       -0.10640000       0.52590000       0.73550000
C        0.91380000      -0.12470000       1.63580000
C       -1.26330000      -0.03360000       0.35580000
C       -1.84180000      -1.37020000       0.74150000
N       -3.13040000      -1.29750000       1.45510000
H       -3.02640000      -0.67850000       2.25560000
H       -3.81940000      -0.84830000       0.85670000
C        0.76580000      -1.13910000      -2.16350000
O        1.74950000      -0.58500000      -1.88270000
O       -0.20690000      -1.70200000      -2.46200000
H        1.21920000       1.87780000      -0.30180000
H       -0.49000000       2.34830000      -0.37590000
H        0.44670000       2.58060000       1.11310000
H        1.13270000       0.52050000       2.49620000
H        0.60000000      -1.09770000       2.01650000
H        1.86290000      -0.26120000       1.10240000
H       -1.91130000       0.55310000      -0.29830000
H       -2.00510000      -1.97220000      -0.16120000
H       -1.14750000      -1.94050000       1.36570000
