21
Properties=species:S:1:pos:R:3 gdb_90959=T pbc="F F F"
C       -0.13380000       1.55430000      -0.03670000
C        0.02300000       0.03190000      -0.00130000
C        0.93110000      -0.55140000      -1.13000000
C        1.97550000      -1.28190000      -0.28950000
C        1.28390000      -1.94350000       0.94440000
C        2.54340000      -1.67650000       1.80440000
C        2.31720000      -0.39780000       0.96120000
O        3.01440000       0.80080000       0.98980000
C        0.78760000      -0.48810000       1.22170000
H        0.84320000       2.04470000       0.01290000
H       -0.63390000       1.87750000      -0.95610000
H       -0.73220000       1.91140000       0.80900000
H       -0.97210000      -0.42830000      -0.03830000
H        0.39140000      -1.22190000      -1.80650000
H        1.38150000       0.23940000      -1.74020000
H        2.78220000      -1.82340000      -0.79020000
H        0.67080000      -2.84260000       0.93320000
H        2.39480000      -1.58770000       2.88420000
H        3.43010000      -2.27530000       1.57200000
H        3.92260000       0.63270000       0.71580000
H        0.41310000      -0.24160000       2.21790000
