20
Properties=species:S:1:pos:R:3 gdb_72727=T pbc="F F F"
C       -0.09330000       1.53530000      -0.00710000
C        0.02510000       0.02170000      -0.01940000
O        1.12760000      -0.32420000      -0.97620000
C        2.01770000      -0.38880000       0.21390000
C        0.74060000      -0.76440000       1.01720000
C        0.40270000      -2.26200000       0.72870000
C       -1.12240000      -2.14760000       0.47630000
C       -1.23460000      -0.64530000       0.69380000
N       -0.36800000      -0.35330000       1.96860000
H        0.87360000       2.03450000       0.09800000
H       -0.51290000       1.84070000      -0.97340000
H       -0.75410000       1.88530000       0.78660000
H        2.78800000      -1.15500000       0.09850000
H        2.46630000       0.58630000       0.41940000
H        0.94190000      -2.66850000      -0.12690000
H        0.64860000      -2.86430000       1.60990000
H       -1.41520000      -2.44490000      -0.53470000
H       -1.73270000      -2.71520000       1.18490000
H       -2.21580000      -0.16610000       0.67760000
H       -0.54360000      -1.05160000       2.69520000
