18
Properties=species:S:1:pos:R:3 gdb_45175=T pbc="F F F"
O        0.01400000      -0.00980000      -0.10360000
C        0.00370000       1.19260000      -0.01010000
C       -1.26950000       2.04010000       0.10390000
C       -0.90700000       3.34670000       0.82090000
C       -0.10380000       2.99860000       2.10140000
C        1.11870000       3.11590000       1.18660000
C        1.23920000       2.07150000       0.00720000
C        0.93690000       3.29640000      -0.90390000
N        0.34450000       4.02990000       0.25670000
H       -1.66620000       2.22540000      -0.90190000
H       -2.03400000       1.47940000       0.64950000
H       -1.75550000       4.02740000       0.90500000
H       -0.11280000       3.80760000       2.83450000
H       -0.31710000       2.04710000       2.59490000
H        2.07690000       3.47100000       1.57490000
H        2.15520000       1.49280000      -0.11570000
H        1.84470000       3.82000000      -1.21720000
H        0.29570000       3.15270000      -1.77860000
