18
Properties=species:S:1:pos:R:3 gdb_93569=T pbc="F F F"
C        0.15330000       1.54890000      -0.08400000
C       -0.03180000       0.03870000       0.06850000
O        0.51220000      -0.63820000      -1.07500000
C        1.41860000      -1.65470000      -0.67020000
C        1.52140000      -1.52180000       0.83170000
C        0.68560000      -0.56780000       1.23760000
C        2.37940000      -2.32270000       1.74620000
N        3.19090000      -3.23800000       1.12720000
O        2.34920000      -2.19620000       2.95700000
H        1.21630000       1.80460000      -0.11290000
H       -0.31320000       1.88800000      -1.01290000
H       -0.31440000       2.07950000       0.75150000
H       -1.11260000      -0.17790000       0.12750000
H        1.04070000      -2.64600000      -0.97090000
H        2.38400000      -1.50640000      -1.18190000
H        0.53680000      -0.27080000       2.26740000
H        3.35510000      -3.22180000       0.13540000
H        3.85610000      -3.72440000       1.70670000
