21
Properties=species:S:1:pos:R:3 gdb_57591=T pbc="F F F"
C       -0.07510000       1.67080000      -0.28450000
C       -0.00780000       0.14490000      -0.07870000
C        0.59350000      -0.20640000       1.29090000
C       -1.44880000      -0.38200000      -0.17220000
O       -1.88940000      -1.28160000       0.49610000
C        0.79500000      -0.53630000      -1.20770000
C        2.10930000       0.09380000      -1.61690000
C        0.59270000      -1.97170000      -1.46110000
O       -0.00750000      -0.98890000      -2.31720000
H        0.90640000       2.13390000      -0.15620000
H       -0.44450000       1.92350000      -1.28390000
H       -0.75020000       2.12460000       0.44890000
H        0.05720000       0.31360000       2.09050000
H        0.51840000      -1.27810000       1.48470000
H        1.64530000       0.08950000       1.34540000
H       -2.08530000       0.14750000      -0.91190000
H        2.79510000       0.17370000      -0.76750000
H        2.58760000      -0.51370000      -2.38880000
H        1.95800000       1.09640000      -2.02620000
H        1.39830000      -2.54640000      -1.91510000
H       -0.10450000      -2.54340000      -0.85250000
