17
Properties=species:S:1:pos:R:3 gdb_50544=T pbc="F F F"
O       -0.87210000       0.87720000       0.60910000
C        0.16850000       0.84290000       0.00080000
C        1.34530000       1.76750000       0.21980000
C        1.31050000       2.95710000      -0.80130000
C        0.82770000       3.82340000       0.38850000
N        1.27900000       2.75680000       1.29890000
C        0.61390000       2.50510000       2.56300000
C        0.98490000       3.53140000       3.54850000
N        1.25600000       4.35050000       4.31650000
H        0.33380000       0.10590000      -0.82090000
H        2.26190000       1.15980000       0.21130000
H        2.30470000       3.22110000      -1.16060000
H        0.62770000       2.85560000      -1.64550000
H        1.31810000       4.78890000       0.54190000
H       -0.26270000       3.97010000       0.38850000
H       -0.48270000       2.46770000       2.48950000
H        0.93610000       1.53000000       2.94530000
