16
Properties=species:S:1:pos:R:3 gdb_95105=T pbc="F F F"
C        0.16270000       1.57580000      -0.06800000
C        0.06020000       0.06170000      -0.00440000
O        0.74750000      -0.49740000      -1.12190000
C        1.28500000      -1.76900000      -0.78980000
C        1.51820000      -1.72750000       0.70500000
O        2.16740000      -0.53230000       1.14230000
C        0.73710000      -0.58530000       1.20600000
C        0.12330000      -0.52290000       2.50690000
N       -0.40530000      -0.44640000       3.53200000
H        1.20920000       1.88200000       0.00070000
H       -0.24800000       1.93510000      -1.01460000
H       -0.40120000       2.03210000       0.75080000
H       -0.99620000      -0.25460000       0.00080000
H        0.58830000      -2.58990000      -1.02400000
H        2.20210000      -1.90920000      -1.36980000
H        1.70630000      -2.62430000       1.28770000
