17
Properties=species:S:1:pos:R:3 gdb_78259=T pbc="F F F"
O        0.01000000       1.23730000      -0.07100000
C       -0.01780000      -0.14230000       0.16320000
C       -0.59240000      -0.74960000       1.41060000
C       -1.30730000      -0.87910000       0.05250000
C       -2.48000000       0.00410000       0.54180000
C       -3.77790000      -0.74620000       0.61000000
O       -3.94240000      -1.75910000       1.25680000
C       -1.73730000       0.12300000       1.95140000
O       -2.41120000      -0.38030000       3.06170000
H        0.68600000       1.62380000       0.49570000
H        0.83240000      -0.68710000      -0.24910000
H       -0.07100000      -1.49390000       2.00160000
H       -1.42970000      -1.74320000      -0.58940000
H       -2.60540000       0.93990000      -0.00660000
H       -4.61830000      -0.32630000       0.01740000
H       -1.45800000       1.15170000       2.19330000
H       -2.82600000      -1.21680000       2.79870000
