15
Properties=species:S:1:pos:R:3 gdb_31305=T pbc="F F F"
C        0.01180000       1.46070000      -0.04140000
O        0.00440000       0.03560000      -0.00870000
C        0.59410000      -0.57950000      -1.04100000
C        0.68720000      -1.95860000      -1.18830000
N        1.37310000      -2.10620000      -2.39450000
C        1.63680000      -0.87380000      -2.87610000
N        1.17800000       0.07630000      -2.07870000
C        0.25020000      -3.03390000      -0.40470000
C       -0.11990000      -3.97010000       0.25980000
H        1.03450000       1.85030000      -0.04950000
H       -0.51160000       1.83820000      -0.92550000
H       -0.50450000       1.77840000       0.86540000
H        1.61650000      -2.98880000      -2.81210000
H        2.16230000      -0.71170000      -3.80480000
H       -0.45200000      -4.78300000       0.85610000
