21
Properties=species:S:1:pos:R:3 gdb_71013=T pbc="F F F"
C        0.01660000       1.54210000       0.06790000
C       -0.06300000       0.04580000      -0.03830000
C        0.29100000      -0.76500000      -1.35830000
C       -0.37890000      -1.88510000      -0.51620000
C       -0.69720000      -3.38290000      -0.29640000
C       -0.25170000      -3.15370000       1.20520000
C        0.58360000      -1.95310000       0.65020000
O        0.69320000      -0.58300000       1.04650000
C       -1.36260000      -0.78660000      -0.00360000
H        1.05260000       1.88130000      -0.02620000
H       -0.57700000       2.01510000      -0.71940000
H       -0.36300000       1.87560000       1.03880000
H       -0.27930000      -0.39020000      -2.21120000
H        1.34540000      -0.89210000      -1.61710000
H       -1.72190000      -3.71240000      -0.47810000
H       -0.00840000      -4.05340000      -0.81760000
H       -1.08930000      -2.85680000       1.83740000
H        0.30360000      -3.95690000       1.69320000
H        1.57810000      -2.32460000       0.37140000
H       -1.84240000      -0.89760000       0.97060000
H       -2.09070000      -0.50480000      -0.76830000
