15
Properties=species:S:1:pos:R:3 gdb_51304=T pbc="F F F"
O       -0.54160000       0.55470000       0.61710000
C        0.21730000       0.87570000      -0.25800000
C        1.34140000       1.89420000      -0.06950000
C        1.31150000       2.95760000      -1.12060000
C        0.99790000       4.25300000      -1.05380000
C        1.13180000       4.86500000      -2.41600000
O        1.54580000       3.79660000      -3.26690000
C        1.66130000       2.64720000      -2.53490000
O        1.99140000       1.59550000      -3.01060000
H        0.16090000       0.44050000      -1.27700000
H        1.26940000       2.30840000       0.93800000
H        2.28420000       1.33670000      -0.16220000
H        0.69630000       4.81710000      -0.18060000
H        0.18680000       5.27660000      -2.79240000
H        1.88470000       5.66230000      -2.45250000
