13
Properties=species:S:1:pos:R:3 gdb_23191=T pbc="F F F"
O       -0.11800000       1.33730000      -0.08180000
N        0.01230000      -0.04310000       0.06930000
C       -1.10630000      -0.62440000      -0.00720000
C       -2.58600000      -0.23790000      -0.09240000
C       -2.89150000      -1.73980000       0.09500000
O       -2.26890000      -2.43850000      -0.97180000
C       -1.43860000      -2.08050000       0.15660000
C       -0.73280000      -3.11060000       0.84910000
N       -0.14890000      -3.92390000       1.42640000
H        0.79200000       1.64330000       0.00880000
H       -2.88790000       0.39290000       0.74830000
H       -2.93880000       0.19370000      -1.03050000
H       -3.71750000      -2.21750000       0.60660000
