14
Properties=species:S:1:pos:R:3 gdb_26618=T pbc="F F F"
N       -0.04280000       1.40130000       0.15090000
C       -0.06560000       0.01860000       0.05280000
C       -1.21080000      -0.72960000       0.02890000
O       -2.40160000      -0.06670000       0.03750000
C       -1.13320000      -2.15520000      -0.00460000
C        0.08110000      -2.73760000      -0.02020000
O        1.22320000      -2.02500000      -0.01560000
C        1.22760000      -0.63540000       0.00610000
O        2.29090000      -0.06010000      -0.02240000
H        0.84540000       1.78940000      -0.13720000
H       -0.84770000       1.87030000      -0.23730000
H       -3.12600000      -0.69870000      -0.00170000
H       -2.02770000      -2.76680000      -0.01320000
H        0.26330000      -3.80350000      -0.03920000
