17
Properties=species:S:1:pos:R:3 gdb_105553=T pbc="F F F"
C        0.03940000       1.56360000       0.11880000
C       -0.01140000       0.04590000      -0.07720000
C       -1.44380000      -0.52090000      -0.05450000
C       -1.56330000      -2.08210000       0.05940000
N       -2.15190000      -1.87940000       1.38310000
C       -2.09950000      -0.51430000       1.38410000
O       -2.39280000       0.33140000       2.17940000
C       -2.28820000       0.05560000      -1.08930000
N       -2.95500000       0.50870000      -1.91830000
H        1.07700000       1.90840000       0.13340000
H       -0.47780000       2.08190000      -0.69410000
H       -0.43570000       1.85110000       1.06010000
H        0.45900000      -0.23400000      -1.02680000
H        0.55090000      -0.45720000       0.71830000
H       -2.23350000      -2.54880000      -0.66640000
H       -0.59740000      -2.59590000       0.06730000
H       -2.44180000      -2.52980000       2.09820000
