19
Properties=species:S:1:pos:R:3 gdb_103738=T pbc="F F F"
C       -0.01290000       1.41980000       0.27730000
C       -0.18320000      -0.05300000      -0.11360000
C        0.65990000      -0.43840000      -1.31280000
O        0.33300000       0.22490000      -2.50930000
C        2.09670000      -0.84970000      -1.13900000
C        1.03510000      -1.90020000      -1.48970000
O        0.66570000      -2.80570000      -0.50830000
C        1.05470000      -2.48820000      -2.84840000
O        0.76960000      -3.65520000      -3.01740000
H        1.02660000       1.64620000       0.53930000
H       -0.31110000       2.08550000      -0.53990000
H       -0.63680000       1.66710000       1.14060000
H        0.07420000      -0.70440000       0.72530000
H       -1.23240000      -0.25440000      -0.35840000
H        0.70210000       1.11420000      -2.46340000
H        2.80750000      -0.57200000      -1.91060000
H        2.49520000      -0.93130000      -0.13380000
H        0.49530000      -3.63010000      -0.99440000
H        1.33710000      -1.82050000      -3.67910000
