15
Properties=species:S:1:pos:R:3 gdb_131102=T pbc="F F F"
O       -0.79110000       0.86960000       0.08640000
C        0.01220000      -0.30650000      -0.03920000
C        0.90480000      -0.21810000      -1.20190000
C        1.63570000      -0.10360000      -2.14940000
C        0.77560000      -0.61210000       1.22460000
N        0.26160000      -1.45600000       2.11730000
N        1.14510000      -1.45030000       3.12990000
C        2.20460000      -0.63360000       2.91080000
C        2.00280000      -0.06660000       1.67220000
H       -0.19200000       1.61340000       0.21710000
H       -0.70810000      -1.11670000      -0.19050000
H        2.27400000      -0.01780000      -2.99390000
H        0.97040000      -2.03380000       3.93060000
H        3.00070000      -0.53110000       3.63110000
H        2.65060000       0.62050000       1.15310000
