20
Properties=species:S:1:pos:R:3 gdb_12004=T pbc="F F F"
C        0.03880000       1.53010000       0.02310000
C       -0.00980000      -0.00250000      -0.00420000
C       -1.46560000      -0.49930000      -0.01040000
C        0.79180000      -0.58870000      -1.20770000
C        1.37420000      -1.94270000      -0.73400000
C        1.52080000      -1.76190000       0.76300000
O        2.13870000      -0.51680000       1.12950000
C        0.70980000      -0.61820000       1.19220000
H        1.07100000       1.87910000       0.12200000
H       -0.37830000       1.95290000      -0.89760000
H       -0.53880000       1.93210000       0.86330000
H       -2.01000000      -0.08560000      -0.86570000
H       -1.52030000      -1.59130000      -0.07360000
H       -1.99350000      -0.19200000       0.89960000
H        0.16690000      -0.69120000      -2.09920000
H        1.61060000       0.08940000      -1.45820000
H        0.68420000      -2.77360000      -0.92550000
H        2.32040000      -2.18700000      -1.22700000
H        1.75160000      -2.60210000       1.41360000
H        0.28070000      -0.53510000       2.18950000
