12
Properties=species:S:1:pos:R:3 gdb_647=T pbc="F F F"
C       -0.05530000       1.59050000      -0.05600000
C        1.47230000       1.28530000       0.01520000
O        1.14340000       0.18080000       0.92280000
C       -0.00640000       0.03380000       0.02380000
C        0.68320000      -0.32350000      -1.30850000
C        1.70150000       0.53870000      -1.31460000
H       -0.43640000       2.04710000       0.86030000
H       -0.45870000       2.06090000      -0.95510000
H        2.22050000       1.98040000       0.39340000
H       -0.81300000      -0.58700000       0.41110000
H        0.38250000      -1.07730000      -2.02050000
H        2.48960000       0.70670000      -2.03300000
