13
Properties=species:S:1:pos:R:3 gdb_20778=T pbc="F F F"
C        0.08760000       1.46190000       0.00550000
C       -0.00940000      -0.03140000       0.03270000
N       -0.12420000      -0.63670000      -1.09970000
O       -0.21730000      -2.02330000      -1.12160000
N       -0.19280000      -2.78900000       0.01720000
C       -0.07850000      -2.18660000       1.14550000
C        0.02790000      -0.74520000       1.31340000
N        0.14340000      -0.10030000       2.41620000
H        1.02060000       1.78270000       0.47890000
H        0.04340000       1.82450000      -1.02180000
H       -0.72480000       1.89810000       0.59480000
H       -0.06440000      -2.84190000       2.01440000
H        0.15330000      -0.74420000       3.21210000
