17
Properties=species:S:1:pos:R:3 gdb_84168=T pbc="F F F"
C       -0.56220000       1.41030000       0.00580000
C        0.21980000       0.10020000      -0.01020000
N        1.05060000      -0.00160000      -1.20850000
C        1.94920000      -0.90050000      -1.21450000
N        2.73460000      -1.17060000      -2.30660000
O        2.28430000      -1.71620000      -0.16790000
C        2.19520000      -1.09250000       1.11290000
C        1.04860000      -0.09330000       1.25370000
O        0.87030000       0.48140000       2.29950000
H        0.12490000       2.26090000       0.00390000
H       -1.19000000       1.47410000      -0.88580000
H       -1.18800000       1.47510000       0.89830000
H       -0.50180000      -0.73820000      -0.00590000
H        2.33770000      -0.90480000      -3.19350000
H        3.22450000      -2.05020000      -2.28590000
H        2.06890000      -1.89200000       1.84760000
H        3.13370000      -0.56980000       1.33890000
