17
Properties=species:S:1:pos:R:3 gdb_55025=T pbc="F F F"
C        0.58210000       0.43150000      -0.33360000
C       -0.76280000       1.03250000       0.02530000
O       -0.95730000       2.22620000       0.05890000
C       -1.92490000       0.11310000       0.32410000
O       -1.80960000      -1.28650000       0.06110000
C       -1.94890000      -0.88740000       1.42030000
C       -0.81580000      -1.15500000       2.35280000
C       -0.95190000      -0.86900000       3.78810000
O       -1.04240000      -2.20450000       3.29750000
H        1.06750000       1.07530000      -1.06970000
H        1.22180000       0.41480000       0.55660000
H        0.48700000      -0.58820000      -0.70890000
H       -2.87990000       0.56530000       0.05730000
H       -2.92370000      -1.10720000       1.85910000
H        0.17720000      -1.15760000       1.90910000
H       -0.06300000      -0.63720000       4.37220000
H       -1.88090000      -0.44470000       4.16670000
