18
Properties=species:S:1:pos:R:3 gdb_90575=T pbc="F F F"
O        0.17150000       1.33240000      -0.10720000
C        0.08320000      -0.07200000       0.00980000
C        0.32090000      -0.77710000       1.37590000
N       -1.03970000      -1.42930000       1.32400000
C       -2.04150000      -0.34480000       1.32330000
C       -1.93820000       0.92960000       2.15170000
C       -1.96640000       0.60800000       3.63150000
O       -1.07380000       0.86400000       4.39900000
C       -1.33320000      -0.62060000       0.05390000
H        1.10010000       1.57280000      -0.18970000
H        0.65940000      -0.56450000      -0.78330000
H        1.09440000      -1.54670000       1.34640000
H        0.48290000      -0.13440000       2.24470000
H       -3.03580000      -0.78860000       1.35350000
H       -1.04910000       1.51270000       1.91850000
H       -2.81710000       1.54530000       1.91640000
H       -2.88740000       0.08620000       3.98090000
H       -1.84550000      -1.05990000      -0.79640000
