21
Properties=species:S:1:pos:R:3 gdb_39393=T pbc="F F F"
C        0.00460000       1.52030000       0.00610000
C        1.28290000       0.69610000      -0.09060000
C        2.29780000       0.40500000       0.98360000
O        2.40380000      -1.00140000       1.28120000
C        1.84660000      -1.95350000       0.38030000
C        0.28320000      -1.99270000       0.30110000
C       -0.29500000      -0.89890000       1.23860000
C       -0.06400000       0.03230000       0.04190000
C       -0.29070000      -1.15850000      -0.89330000
H       -0.21100000       2.03260000       0.93990000
H       -0.29200000       2.07190000      -0.88050000
H        1.68610000       0.65650000      -1.09990000
H        3.29120000       0.77260000       0.69150000
H        2.03430000       0.89350000       1.92950000
H        2.27030000      -1.84280000      -0.62970000
H        2.20410000      -2.90940000       0.77430000
H       -0.08540000      -3.01630000       0.40890000
H       -1.36430000      -1.04550000       1.42130000
H        0.22220000      -0.71080000       2.17870000
H        0.25120000      -1.17170000      -1.84420000
H       -1.34660000      -1.39290000      -1.06730000
