18
Properties=species:S:1:pos:R:3 gdb_25907=T pbc="F F F"
C       -0.00720000       1.51720000      -0.00210000
C        0.06130000       0.00430000       0.02260000
O        1.10150000      -0.61030000       0.05090000
N       -1.16970000      -0.67170000       0.01100000
C       -2.45100000      -0.12880000      -0.01990000
C       -3.34550000      -1.15610000      -0.02000000
C       -2.60650000      -2.39290000       0.01200000
C       -3.18550000      -3.77410000       0.02310000
C       -1.28300000      -2.05930000       0.03040000
H        1.01290000       1.89900000       0.00830000
H       -0.52060000       1.87430000      -0.89990000
H       -0.54840000       1.90140000       0.86780000
H       -2.60410000       0.93640000      -0.03890000
H       -4.42080000      -1.05530000      -0.04070000
H       -3.80310000      -3.95840000      -0.86370000
H       -2.39810000      -4.53230000       0.04420000
H       -3.82700000      -3.93430000       0.89750000
H       -0.38950000      -2.65910000       0.05540000
