17
Properties=species:S:1:pos:R:3 gdb_41456=T pbc="F F F"
C        0.05110000       1.49220000      -0.14840000
O        1.51330000       1.44470000       0.08800000
C        1.32740000       0.20100000       0.80690000
C        1.11540000       0.26020000       2.31510000
O        0.15030000      -0.79960000       2.46710000
C       -0.03570000      -1.23750000       1.14830000
C        1.36960000      -1.31390000       0.38420000
C        0.66940000      -0.94630000      -0.92500000
C       -0.01800000      -0.03000000       0.12230000
H       -0.43860000       2.14290000       0.58310000
H       -0.17770000       1.81920000      -1.16600000
H        2.01070000       0.03630000       2.90510000
H        0.69000000       1.21130000       2.65390000
H       -0.75360000      -2.05650000       1.10340000
H        2.13750000      -2.07150000       0.56450000
H        1.28550000      -0.42780000      -1.66060000
H        0.04630000      -1.71270000      -1.39320000
