19
Properties=species:S:1:pos:R:3 gdb_88583=T pbc="F F F"
O       -0.72740000      -0.32470000       2.17080000
C       -0.12800000      -0.25820000       0.91700000
C       -0.49810000      -1.29930000      -0.08670000
C       -0.96610000       0.13460000      -0.30050000
C       -2.37130000       0.54920000      -0.13840000
C       -3.34020000       0.09050000       0.66000000
C       -4.60130000       0.87860000       0.44960000
O       -4.26670000       1.87560000      -0.51400000
C       -2.92460000       1.70430000      -0.94180000
H       -1.29110000       0.45170000       2.27600000
H        0.90000000       0.10080000       0.93430000
H        0.26440000      -1.68710000      -0.75310000
H       -1.25180000      -2.01560000       0.22080000
H       -0.42590000       0.68980000      -1.06190000
H       -3.27170000      -0.74170000       1.34730000
H       -5.42780000       0.25320000       0.07320000
H       -4.96280000       1.36370000       1.37030000
H       -2.35610000       2.63440000      -0.77800000
H       -2.89120000       1.49590000      -2.02460000
