14
Properties=species:S:1:pos:R:3 gdb_56118=T pbc="F F F"
N       -0.10750000       1.26020000       0.23340000
C       -0.00310000      -0.10230000       0.04420000
O        0.96320000      -0.75530000       0.38840000
N       -1.11810000      -0.66580000      -0.56750000
C       -1.22470000      -2.09990000      -0.58490000
C       -2.55400000      -2.56030000      -0.03280000
O       -3.42840000      -1.82010000       0.34450000
C       -2.74110000      -4.02300000      -0.01440000
N       -2.87270000      -5.17150000      -0.00420000
H        0.76510000       1.70080000       0.47950000
H       -0.69130000       1.79130000      -0.39380000
H       -2.00030000      -0.18660000      -0.44540000
H       -1.12720000      -2.52560000      -1.59670000
H       -0.40330000      -2.52840000       0.00460000
