13
Properties=species:S:1:pos:R:3 gdb_15288=T pbc="F F F"
N        0.05200000      -1.07890000      -0.54280000
C        0.01340000       0.02240000      -0.19660000
C       -0.00330000       1.41370000       0.25360000
C        1.38100000       2.03640000       0.17580000
N        1.75030000       2.63670000      -1.09800000
C        1.56640000       3.51890000       0.07050000
C        0.43830000       4.41930000       0.03340000
N       -0.47030000       5.13380000       0.03860000
H       -0.70010000       1.98710000      -0.36510000
H       -0.37330000       1.44840000       1.28460000
H        2.14790000       1.51120000       0.74100000
H        2.73950000       2.52190000      -1.30060000
H        2.44500000       3.93680000       0.55430000
