14
Properties=species:S:1:pos:R:3 gdb_131308=T pbc="F F F"
O        0.09210000       1.25920000      -0.07650000
C        0.15750000      -0.07410000      -0.08550000
N       -0.06790000      -0.76640000      -1.19560000
N       -0.08670000      -2.04020000      -0.67320000
C        0.59120000      -3.32930000      -0.93160000
C        2.02530000      -3.27800000      -0.48400000
C        0.91660000      -3.38720000       0.56140000
C        0.29350000      -2.01240000       0.62620000
N        0.44650000      -0.78270000       1.06800000
H        0.31200000       1.54020000       0.82020000
H        0.15380000      -4.07350000      -1.58240000
H        2.61040000      -4.17840000      -0.65300000
H        2.58150000      -2.35110000      -0.57710000
H        0.81240000      -4.21630000       1.24550000
