19
Properties=species:S:1:pos:R:3 gdb_65610=T pbc="F F F"
C        0.16280000       1.45530000       0.03160000
C        0.02310000      -0.06740000      -0.02310000
C        1.01590000      -0.83610000      -0.98420000
C        1.53700000      -1.69070000       0.20070000
C        2.71770000      -1.06390000       0.95630000
O        1.82690000      -0.22180000       1.73140000
C        0.66380000      -0.86000000       1.17790000
C       -1.35580000      -0.47970000      -0.23060000
C       -2.49320000      -0.84160000      -0.38310000
H        1.18500000       1.72450000       0.30690000
H       -0.07690000       1.89570000      -0.94080000
H       -0.51680000       1.88250000       0.77480000
H        0.50830000      -1.40110000      -1.76620000
H        1.77120000      -0.19320000      -1.44550000
H        1.49770000      -2.77400000       0.10540000
H        3.26700000      -1.75530000       1.60780000
H        3.43380000      -0.48130000       0.36330000
H       -0.01310000      -1.24680000       1.94310000
H       -3.49980000      -1.14880000      -0.52410000
