20
Properties=species:S:1:pos:R:3 gdb_59008=T pbc="F F F"
C        0.00570000       1.59220000       0.06480000
C       -0.05400000       0.06410000      -0.01350000
C        0.74670000      -0.59320000       1.13020000
C       -1.47540000      -0.43230000      -0.01120000
N       -2.51090000       0.25770000       0.28360000
C       -3.66260000      -0.64430000       0.17050000
C       -3.11460000      -2.00050000      -0.26570000
N       -3.79060000      -3.05060000      -0.49700000
N       -1.74190000      -1.76790000      -0.33300000
H        1.04620000       1.92960000       0.03550000
H       -0.53560000       2.05200000      -0.76510000
H       -0.45240000       1.94780000       0.99100000
H        0.39560000      -0.25920000      -0.96420000
H        0.34190000      -0.29190000       2.10150000
H        0.71810000      -1.68610000       1.07990000
H        1.79430000      -0.28170000       1.08580000
H       -4.18640000      -0.72520000       1.12940000
H       -4.38800000      -0.26080000      -0.55490000
H       -3.19630000      -3.83400000      -0.77360000
H       -1.06060000      -2.44310000      -0.63650000
