16
Properties=species:S:1:pos:R:3 gdb_18196=T pbc="F F F"
C        0.02560000      -1.23540000       0.02360000
C        0.01990000      -0.03480000       0.05820000
C        0.03020000       1.42460000       0.05170000
O       -0.56830000       1.91010000       1.25970000
C       -0.06850000       3.22260000       1.50820000
C        1.34670000       3.23400000       0.96000000
C        2.19230000       2.03220000       1.29670000
C        1.41710000       2.06600000       0.00770000
H        0.02850000      -2.29710000       0.00240000
H       -0.54530000       1.77790000      -0.82120000
H       -0.67940000       3.98400000       0.99660000
H       -0.14000000       3.39020000       2.58790000
H        1.81330000       4.18490000       0.73200000
H        3.26830000       2.14400000       1.22930000
H        1.85010000       1.36330000       2.08000000
H        1.92700000       2.11620000      -0.94610000
