23
Properties=species:S:1:pos:R:3 gdb_89411=T pbc="F F F"
C       -0.00420000       1.57940000      -0.01370000
C        0.09290000       0.05530000       0.00340000
C        0.78600000      -0.57210000      -1.22970000
C        1.24970000      -1.96080000      -0.76490000
C        0.77610000      -3.17340000      -1.53140000
C        2.56840000      -1.99260000      -0.03960000
C        1.28530000      -1.92430000       0.75560000
C        0.83650000      -0.54640000       1.23040000
O        1.97780000       0.21500000       1.62510000
H        0.99120000       2.03410000      -0.05480000
H       -0.56190000       1.92920000      -0.88830000
H       -0.52100000       1.96310000       0.87480000
H       -0.92310000      -0.36070000       0.04620000
H        0.09920000      -0.64180000      -2.07940000
H        1.63180000       0.04510000      -1.55580000
H        1.18390000      -3.18700000      -2.54940000
H        1.08960000      -4.10030000      -1.03970000
H       -0.31750000      -3.19310000      -1.61410000
H        3.10640000      -2.93530000      -0.01600000
H        3.20080000      -1.11250000      -0.05020000
H        0.99770000      -2.79030000       1.34170000
H        0.14930000      -0.63950000       2.08390000
H        1.66540000       1.06750000       1.94400000
