13
Properties=species:S:1:pos:R:3 gdb_823=T pbc="F F F"
O       -0.14080000       1.31590000      -0.04190000
N        0.02230000      -0.08010000       0.03900000
C       -1.09350000      -0.67060000      -0.04160000
C       -2.57050000      -0.26180000      -0.06280000
C       -2.88710000      -1.76100000       0.11220000
N       -2.32560000      -2.43690000      -1.07040000
C       -1.42910000      -2.11740000       0.09190000
H        0.76620000       1.62950000       0.04000000
H       -2.82260000       0.35650000       0.80310000
H       -2.94830000       0.20190000      -0.97630000
H       -3.68620000      -2.20050000       0.69420000
H       -2.54650000      -3.43010000      -0.98470000
H       -0.87500000      -2.89600000       0.59830000
