19
Properties=species:S:1:pos:R:3 gdb_42012=T pbc="F F F"
C        0.07170000       1.46900000      -0.26890000
C        1.51470000       1.87750000       0.12660000
C        2.06180000       0.67200000       0.91950000
O        3.45970000       0.43300000       0.70840000
C        3.71400000      -0.82660000       0.13650000
O        3.11080000      -1.87330000       0.85200000
C        1.68440000      -1.86670000       0.72560000
C        1.19670000      -0.47810000       0.44570000
C        0.12200000      -0.04090000      -0.20840000
H       -0.66520000       1.86570000       0.44330000
H       -0.22340000       1.84430000      -1.25490000
H        2.13330000       1.98990000      -0.76910000
H        1.56230000       2.81460000       0.68580000
H        1.94000000       0.82030000       2.00330000
H        3.38720000      -0.84980000      -0.91860000
H        4.79340000      -0.98090000       0.19270000
H        1.36460000      -2.56540000      -0.06210000
H        1.29860000      -2.24610000       1.68060000
H       -0.65120000      -0.67300000      -0.63350000
