21
Properties=species:S:1:pos:R:3 gdb_104398=T pbc="F F F"
C        0.23490000       1.60680000      -0.29390000
C       -0.00830000       0.15100000       0.09690000
O        0.53390000      -0.75100000      -0.87460000
C        1.86180000      -0.99820000      -0.49050000
O        1.94140000      -0.84310000       0.91710000
C        0.67050000      -0.33910000       1.39580000
C        0.94340000       0.70860000       2.46700000
C       -0.09400000      -1.54460000       1.98080000
O        0.69700000      -2.24430000       2.91780000
H        1.30180000       1.84740000      -0.32050000
H       -0.18200000       1.78800000      -1.28810000
H       -0.24890000       2.28900000       0.41110000
H       -1.08530000      -0.04710000       0.12670000
H        2.11980000      -2.02250000      -0.78590000
H        2.56290000      -0.29120000      -0.96410000
H        1.62760000       1.47880000       2.10590000
H        0.00990000       1.18520000       2.78340000
H        1.38690000       0.22330000       3.33930000
H       -0.99140000      -1.20380000       2.50930000
H       -0.41290000      -2.19670000       1.15310000
H        1.55080000      -2.37220000       2.48400000
