15
Properties=species:S:1:pos:R:3 gdb_15552=T pbc="F F F"
C       -0.34310000       1.53420000      -0.06340000
C        0.07140000       0.07630000      -0.08170000
O        1.14170000      -0.11100000      -1.05130000
C        2.10070000      -0.81570000      -0.41760000
N        1.97680000      -1.12360000       0.80550000
C        0.68490000      -0.52820000       1.23710000
C        0.88570000       0.42720000       2.32350000
C        1.03810000       1.20930000       3.22290000
H        0.48370000       2.16980000       0.26130000
H       -0.66180000       1.84500000      -1.06200000
H       -1.17710000       1.67970000       0.62880000
H       -0.76040000      -0.55200000      -0.41680000
H        2.95110000      -1.07590000      -1.03890000
H        0.04160000      -1.33450000       1.60690000
H        1.18150000       1.89530000       4.02090000
