21
Properties=species:S:1:pos:R:3 gdb_73668=T pbc="F F F"
C       -0.11190000       1.54720000      -0.00700000
C       -0.02800000       0.01520000      -0.01430000
C       -1.41490000      -0.66060000       0.11380000
C       -1.08200000      -1.96210000       0.84070000
O       -0.05310000      -1.61720000       1.76210000
C        0.76180000      -0.58780000       1.20040000
C        2.09110000      -1.14650000       0.63150000
C        1.88460000      -1.12090000      -0.86150000
C        0.75830000      -0.49890000      -1.20350000
H        0.88520000       1.99880000      -0.03260000
H       -0.66220000       1.91480000      -0.88020000
H       -0.62830000       1.90730000       0.88970000
H       -2.07880000      -0.04380000       0.72940000
H       -1.89900000      -0.82010000      -0.85400000
H       -1.91790000      -2.37560000       1.41230000
H       -0.73470000      -2.73060000       0.13310000
H        0.93840000       0.14360000       1.99560000
H        2.95260000      -0.53210000       0.92600000
H        2.27220000      -2.15070000       1.03060000
H        2.59760000      -1.54760000      -1.55940000
H        0.41120000      -0.34330000      -2.22060000
