19
Properties=species:S:1:pos:R:3 gdb_64922=T pbc="F F F"
C       -0.09470000       1.49010000      -0.03280000
C        0.05760000      -0.01710000       0.01870000
C        1.41430000      -0.66420000      -0.16120000
C        0.82700000      -0.67050000       1.21940000
C        1.36820000       0.22760000       2.31840000
C        0.33510000      -1.98770000       1.73730000
O        0.20160000      -2.99730000       1.08850000
C       -1.10870000      -0.75640000      -0.55840000
O       -2.09150000      -0.19660000      -0.98430000
H        0.84100000       2.00870000       0.18060000
H       -0.42840000       1.78000000      -1.03250000
H       -0.85650000       1.83810000       0.67070000
H        1.45150000      -1.62380000      -0.66730000
H        2.25250000      -0.00270000      -0.35190000
H        1.81290000       1.14060000       1.92220000
H        0.58160000       0.51480000       3.02480000
H        2.14730000      -0.29620000       2.88330000
H        0.10570000      -1.98170000       2.82670000
H       -1.00900000      -1.85650000      -0.59570000
