14
Properties=species:S:1:pos:R:3 gdb_52018=T pbc="F F F"
O       -0.19750000       0.27440000       0.65700000
C        0.09250000       1.08930000      -0.17550000
C        1.28810000       2.01920000      -0.04340000
O        1.42770000       2.71190000      -1.27210000
C        2.51970000       3.60700000      -1.31210000
C        2.69770000       4.09040000      -2.67840000
C        2.87310000       4.48610000      -3.79650000
C        2.31830000       4.74260000      -0.37360000
N        2.15300000       5.59410000       0.38880000
H       -0.49210000       1.23740000      -1.10870000
H        1.10840000       2.71030000       0.79440000
H        2.18490000       1.42730000       0.19510000
H        3.44180000       3.09250000      -0.99060000
H        3.01950000       4.83880000      -4.78840000
