16
Properties=species:S:1:pos:R:3 gdb_72368=T pbc="F F F"
C       -0.28990000       1.45150000      -0.05300000
C        0.01620000      -0.02550000      -0.02630000
O       -1.20330000      -0.79830000      -0.14670000
C       -1.12400000      -1.76110000       0.80920000
N       -0.11970000      -1.81560000       1.58270000
C        0.77520000      -0.73660000       1.15440000
C        1.90370000      -1.20740000       0.19080000
C        1.13490000      -0.55780000      -0.97650000
O        1.32600000      -0.45580000      -2.15020000
H        0.62720000       2.03420000       0.07790000
H       -0.73510000       1.72930000      -1.01250000
H       -0.98680000       1.71270000       0.74900000
H       -1.97730000      -2.42970000       0.83530000
H        1.10020000      -0.13060000       2.00170000
H        2.88670000      -0.75520000       0.35680000
H        2.02180000      -2.29220000       0.12020000
