16
Properties=species:S:1:pos:R:3 gdb_69066=T pbc="F F F"
C       -0.05150000       1.53140000      -0.08580000
C        0.02570000       0.02930000      -0.02620000
C       -0.81180000      -0.75510000       0.94750000
C        0.68930000      -0.80210000       1.14640000
N        1.34890000      -1.87380000       0.44210000
C        1.14800000      -1.65370000      -0.90720000
N        0.42120000      -0.64710000      -1.22940000
C        1.32550000      -0.25740000       2.30210000
N        1.84380000       0.19330000       3.23440000
H        0.86930000       1.95040000      -0.50040000
H       -0.88360000       1.83520000      -0.72900000
H       -0.21110000       1.95690000       0.90850000
H       -1.36700000      -0.17840000       1.67870000
H       -1.28640000      -1.67390000       0.61860000
H        2.21220000      -2.25830000       0.79430000
H        1.57180000      -2.34680000      -1.62590000
