18
Properties=species:S:1:pos:R:3 gdb_106739=T pbc="F F F"
C       -0.13870000       1.47690000      -0.01990000
C        0.05300000       0.00120000       0.05530000
C        1.20770000      -0.83960000      -0.36760000
C        0.66980000      -0.95530000       1.06450000
C        1.44750000      -0.86640000       2.34900000
O        1.82380000      -2.15730000       2.79320000
C       -0.64320000      -1.64950000       0.97820000
N       -1.15440000      -2.59030000       1.63540000
O       -1.15860000      -0.83160000      -0.01570000
H        0.81210000       1.98980000       0.14900000
H       -0.50760000       1.76500000      -1.01020000
H       -0.86030000       1.81790000       0.72810000
H        1.06620000      -1.64370000      -1.08330000
H        2.16520000      -0.32900000      -0.42810000
H        2.37080000      -0.29480000       2.21070000
H        0.84420000      -0.34460000       3.10880000
H        1.01160000      -2.67960000       2.84640000
H       -2.11710000      -2.78110000       1.35520000
