17
Properties=species:S:1:pos:R:3 gdb_126677=T pbc="F F F"
C        0.03250000       1.51140000       0.00880000
C       -0.03300000      -0.01860000       0.00220000
C       -1.46600000      -0.52040000       0.01270000
O       -1.42780000      -1.96300000       0.00580000
C       -2.60390000      -2.57830000       0.01300000
N       -3.77340000      -1.99220000       0.02590000
O       -4.68610000      -3.02620000       0.02890000
N       -4.06580000      -4.24150000       0.01770000
C       -2.78920000      -3.99390000       0.00790000
H        1.07020000       1.85520000       0.00110000
H       -0.46590000       1.93640000      -0.86900000
H       -0.45000000       1.92820000       0.89930000
H        0.47420000      -0.41730000      -0.88360000
H        0.49000000      -0.42550000       0.87510000
H       -2.00990000      -0.18560000       0.90400000
H       -2.02570000      -0.17750000      -0.86560000
H       -2.05290000      -4.78130000      -0.00220000
