21
Properties=species:S:1:pos:R:3 gdb_108047=T pbc="F F F"
C        0.03090000       1.41670000      -0.01340000
O       -0.00080000       0.00420000      -0.02250000
C        0.63200000      -0.56070000      -1.12910000
C       -0.05460000      -0.43700000      -2.51730000
C        0.31190000      -1.91500000      -2.81740000
C        1.80120000      -2.11190000      -3.19660000
C        2.20690000      -1.96460000      -1.70850000
C        2.18220000      -0.49550000      -1.20840000
C        0.69410000      -2.11360000      -1.30460000
H        1.06010000       1.80450000       0.01100000
H       -0.47840000       1.84490000      -0.88940000
H       -0.48900000       1.74490000       0.88960000
H       -1.13450000      -0.33140000      -2.37460000
H        0.29630000       0.33050000      -3.21510000
H       -0.42940000      -2.51110000      -3.34950000
H        1.97800000      -3.13430000      -3.54430000
H        2.24260000      -1.41660000      -3.91970000
H        3.00990000      -2.60100000      -1.33690000
H        2.64860000       0.26890000      -1.83860000
H        2.59020000      -0.42890000      -0.19500000
H        0.27080000      -2.83780000      -0.61370000
