23
Properties=species:S:1:pos:R:3 gdb_59954=T pbc="F F F"
C        2.17880000       1.54750000       1.34160000
C        2.18240000       0.05040000       1.02040000
O        3.20070000      -0.62610000       1.74720000
C        0.78870000      -0.56670000       1.23100000
C        0.68250000      -2.10380000       1.12780000
C       -0.80440000      -2.50860000       0.97400000
C        1.49120000      -2.69550000      -0.04610000
C        1.15500000      -2.78550000       2.40480000
O        1.55470000      -2.24350000       3.40710000
H        1.90620000       1.71840000       2.38940000
H        3.17520000       1.96600000       1.17720000
H        1.46510000       2.09040000       0.71200000
H        2.46540000      -0.07120000      -0.03330000
H        2.84720000      -0.83460000       2.62220000
H        0.41250000      -0.26780000       2.21760000
H        0.11010000      -0.12060000       0.49370000
H       -1.18240000      -2.16790000       0.00510000
H       -0.93200000      -3.59580000       1.01760000
H       -1.42370000      -2.06150000       1.75820000
H        2.55580000      -2.47690000       0.05940000
H        1.36330000      -3.78240000      -0.09750000
H        1.13660000      -2.27720000      -0.99370000
H        1.07450000      -3.89660000       2.36750000
