19
Properties=species:S:1:pos:R:3 gdb_63127=T pbc="F F F"
C        0.02020000       1.55320000      -0.05490000
C        0.02110000       0.03760000       0.00460000
C       -1.19390000      -0.61800000      -0.63140000
C        1.28390000      -0.73660000      -0.13580000
O        2.42820000      -0.06180000       0.34940000
C        1.88030000      -0.03710000       1.70080000
C        0.57880000      -0.68930000       1.24850000
C       -0.09250000      -1.73200000       2.02760000
O        0.25170000      -2.04860000       3.14590000
H        0.98730000       1.96900000       0.23140000
H       -0.19030000       1.88330000      -1.07810000
H       -0.75230000       1.97310000       0.59760000
H       -1.30790000      -0.26110000      -1.66020000
H       -1.11050000      -1.70840000      -0.66790000
H       -2.11200000      -0.37070000      -0.08810000
H        1.43320000      -1.56810000      -0.81800000
H        2.45540000      -0.69060000       2.36140000
H        1.83580000       0.97490000       2.11450000
H       -0.95400000      -2.23070000       1.53620000
