20
Properties=species:S:1:pos:R:3 gdb_105350=T pbc="F F F"
C        0.11070000       1.63320000      -0.36270000
C        0.06170000       0.14720000       0.01780000
C       -1.34910000      -0.47530000       0.02650000
C       -2.13580000      -0.58020000      -1.32050000
N       -2.35340000      -2.05770000      -1.14550000
C       -1.00770000      -2.65740000      -1.14080000
C       -1.46810000      -1.99920000       0.09500000
C       -2.20390000       0.19350000       1.08420000
O       -2.56410000      -0.32930000       2.10780000
H        1.14800000       1.97110000      -0.44220000
H       -0.37020000       1.81390000      -1.33030000
H       -0.38310000       2.26920000       0.37780000
H        0.67760000      -0.42100000      -0.68760000
H        0.51540000      -0.00020000       1.00600000
H       -3.09270000      -0.05140000      -1.32890000
H       -1.57880000      -0.31860000      -2.22740000
H       -1.03100000      -3.74280000      -1.16010000
H       -0.22860000      -2.21420000      -1.75780000
H       -1.72280000      -2.53980000       0.99890000
H       -2.49120000       1.24390000       0.85090000
