19
Properties=species:S:1:pos:R:3 gdb_77827=T pbc="F F F"
C       -0.18440000       1.49060000      -0.04030000
N        0.07960000       0.05940000       0.07030000
C        1.37830000      -0.52050000      -0.28610000
C        2.55010000       0.39810000      -0.32440000
N        3.31900000       0.57590000      -1.31000000
O        2.66690000       1.04140000       0.88410000
C        1.82420000       0.42670000       1.87190000
C        0.88480000      -0.51750000       1.13150000
C        0.32830000      -1.70810000       1.87060000
H        0.64380000       2.14870000       0.25360000
H       -0.44340000       1.71120000      -1.07960000
H       -1.05440000       1.72630000       0.58050000
H        1.37270000      -1.37280000      -0.95580000
H        4.06490000       1.23140000      -1.06870000
H        2.44990000      -0.12680000       2.58210000
H        1.30350000       1.22250000       2.41570000
H       -0.29010000      -1.38780000       2.71720000
H       -0.30070000      -2.30060000       1.20310000
H        1.13020000      -2.34370000       2.26050000
