22
Properties=species:S:1:pos:R:3 gdb_10732=T pbc="F F F"
C       -0.00210000       1.28740000       0.24850000
O        0.43430000      -0.03890000       0.08050000
C        0.73010000      -0.50630000      -1.21910000
C        0.32140000       0.26210000      -2.44860000
C        1.78290000       0.19520000      -2.03460000
C        0.61010000      -2.02990000      -1.17080000
C       -0.86160000      -2.43540000      -0.99010000
C        1.24170000      -2.76790000      -2.35630000
H        0.71480000       2.02830000      -0.13590000
H       -0.97860000       1.47020000      -0.22160000
H       -0.10220000       1.44190000       1.32600000
H        0.00450000      -0.30180000      -3.31940000
H       -0.18580000       1.21290000      -2.33940000
H        2.21760000       1.09760000      -1.61760000
H        2.47050000      -0.38710000      -2.63560000
H        1.15280000      -2.32870000      -0.26400000
H       -0.95200000      -3.51200000      -0.81260000
H       -1.30440000      -1.90890000      -0.14170000
H       -1.44670000      -2.19420000      -1.88520000
H        2.31830000      -2.59170000      -2.42730000
H        1.09320000      -3.84600000      -2.23990000
H        0.78410000      -2.48220000      -3.31040000
