11
Properties=species:S:1:pos:R:3 gdb_25372=T pbc="F F F"
O        0.07410000      -0.08950000      -0.00210000
C        0.02800000       1.11590000       0.00850000
C        1.19790000       1.99340000       0.00210000
C        1.33730000       3.35560000       0.01190000
N        2.67000000       3.68220000      -0.00110000
C        3.27340000       2.52490000      -0.01780000
O        2.45210000       1.45540000      -0.01710000
C        4.67340000       2.28740000      -0.03620000
N        5.81350000       2.09600000      -0.05120000
H       -0.92830000       1.67860000       0.02440000
H        0.56670000       4.11070000       0.02720000
