18
Properties=species:S:1:pos:R:3 gdb_36689=T pbc="F F F"
C       -0.07250000      -1.17080000      -0.14480000
C        0.03960000       0.01080000       0.03640000
C        0.14190000       1.44440000       0.27440000
O        1.33970000       1.94550000      -0.28970000
C        1.47070000       3.33110000      -0.13880000
C        1.86360000       3.94520000       1.26470000
C        3.06450000       4.59000000       0.56580000
N        3.88490000       3.45970000       0.08050000
C        2.73710000       3.93040000      -0.73300000
H       -0.16200000      -2.21610000      -0.30870000
H       -0.73330000       1.95540000      -0.16420000
H        0.11050000       1.64100000       1.35880000
H        0.58130000       3.84840000      -0.53200000
H        1.12050000       4.64760000       1.64700000
H        2.13560000       3.21920000       2.03410000
H        3.49660000       5.56540000       0.74850000
H        4.72000000       3.85370000      -0.35300000
H        2.88160000       4.26580000      -1.75240000
