19
Properties=species:S:1:pos:R:3 gdb_38907=T pbc="F F F"
C        0.08280000       1.55880000       0.19710000
C        1.29550000       0.71830000      -0.06940000
O        2.10340000       0.39430000       1.04470000
C        1.54190000      -0.77900000       1.65330000
C        1.55220000      -0.86540000       3.18110000
C        0.20640000      -1.59480000       3.48680000
C       -0.67650000      -1.18180000       2.31850000
C        0.07040000      -0.71940000       1.31900000
C       -0.05810000       0.04220000       0.05230000
H       -0.02500000       1.98710000       1.18700000
H       -0.30420000       2.16500000      -0.61610000
H        1.83640000       0.79840000      -1.00710000
H        2.02160000      -1.66630000       1.20440000
H        2.42530000      -1.37450000       3.59640000
H        1.52040000       0.15220000       3.58380000
H        0.34780000      -2.68440000       3.52830000
H       -0.21740000      -1.30450000       4.45430000
H       -1.75880000      -1.23480000       2.34800000
H       -0.58930000      -0.35520000      -0.80450000
