20
Properties=species:S:1:pos:R:3 gdb_55462=T pbc="F F F"
C        0.02710000       1.52390000      -0.04830000
C        0.05590000       0.00120000      -0.04370000
O        1.11150000      -0.60710000      -0.10520000
N       -1.15080000      -0.65140000       0.04350000
C       -2.46760000      -0.03140000       0.04640000
C       -3.32690000      -0.65150000       1.15370000
O       -3.38820000      -2.05900000       1.03350000
C       -2.09350000      -2.63930000       1.10500000
C       -1.18550000      -2.11090000      -0.00300000
H        1.05840000       1.86460000      -0.13200000
H       -0.54960000       1.91990000      -0.89010000
H       -0.40570000       1.92730000       0.87280000
H       -2.38530000       1.04390000       0.20410000
H       -2.96320000      -0.19650000      -0.92260000
H       -2.91270000      -0.36850000       2.13620000
H       -4.35520000      -0.28390000       1.08910000
H       -1.63930000      -2.42940000       2.08720000
H       -2.23110000      -3.71960000       1.00770000
H       -1.57380000      -2.44080000      -0.97780000
H       -0.16270000      -2.47210000       0.10560000
