19
Properties=species:S:1:pos:R:3 gdb_116627=T pbc="F F F"
C        0.23850000       1.42000000       0.19570000
C       -0.12840000      -0.02220000      -0.18330000
N        0.63910000      -0.48310000      -1.32920000
C        1.74420000      -1.08090000      -1.12910000
N        2.38920000      -1.44030000       0.03990000
C        3.75360000      -1.93160000      -0.15190000
C        3.78350000      -2.34480000      -1.63210000
C        2.61360000      -1.59240000      -2.26720000
O        2.41230000      -1.43360000      -3.43930000
H        1.28100000       1.49450000       0.52410000
H        0.11490000       2.07840000      -0.66820000
H       -0.40130000       1.78290000       1.00640000
H       -0.02000000      -0.67970000       0.69660000
H       -1.18780000      -0.05430000      -0.46100000
H        2.13510000      -1.01580000       0.91580000
H        4.49680000      -1.14740000       0.04950000
H        3.96210000      -2.76630000       0.52450000
H        4.72290000      -2.11770000      -2.13830000
H        3.59360000      -3.41750000      -1.75050000
