16
Properties=species:S:1:pos:R:3 gdb_83015=T pbc="F F F"
C       -0.06830000       1.54700000       0.06280000
C        0.02100000       0.04650000      -0.06790000
C        0.71000000      -0.65990000      -1.17800000
C        1.73950000       0.08750000      -2.02770000
N        2.79310000       0.51150000      -1.08900000
C        2.45620000       0.06340000       0.05790000
C        3.24230000       0.29900000       1.23840000
N        3.85020000       0.48780000       2.20310000
N        1.28170000      -0.72900000       0.19840000
H        0.79350000       2.06750000      -0.35970000
H       -0.96450000       1.89860000      -0.45920000
H       -0.16060000       1.83700000       1.11400000
H       -0.82790000      -0.47800000       0.36410000
H        0.29400000      -1.58690000      -1.55940000
H        2.17990000      -0.56420000      -2.79000000
H        1.34550000       0.96750000      -2.54930000
