18
Properties=species:S:1:pos:R:3 gdb_31959=T pbc="F F F"
C        0.10720000       1.64490000       0.23400000
C       -0.02330000       0.12000000       0.07580000
C        0.63240000      -0.64830000       1.16660000
C        0.21550000      -1.49860000       2.13440000
N        1.30720000      -1.91410000       2.89340000
C        2.31620000      -1.30620000       2.36090000
C        3.73700000      -1.41690000       2.81420000
O        3.84130000      -2.28610000       3.91300000
O        2.00050000      -0.51880000       1.30980000
H        1.15850000       1.94490000       0.25230000
H       -0.37990000       2.16010000      -0.59880000
H       -0.35680000       1.98230000       1.16550000
H       -1.07900000      -0.16940000       0.05720000
H        0.40080000      -0.18300000      -0.89020000
H       -0.78520000      -1.84370000       2.34020000
H        4.35780000      -1.77420000       1.97740000
H        4.11320000      -0.41530000       3.07590000
H        2.94640000      -2.60130000       4.10190000
