16
Properties=species:S:1:pos:R:3 gdb_56067=T pbc="F F F"
C       -0.14710000       1.44830000      -0.04410000
C        0.11020000      -0.02500000       0.10450000
O        0.47800000      -0.59430000       1.09290000
O       -0.14300000      -0.66080000      -1.09470000
C        0.03320000      -2.01730000      -1.14930000
N       -0.19040000      -2.60400000      -2.23670000
C       -0.00760000      -4.03910000      -2.26810000
C       -1.24630000      -4.72260000      -2.83760000
O       -1.54250000      -5.86410000      -2.60620000
H        0.05810000       1.94990000       0.90040000
H        0.48630000       1.85780000      -0.83610000
H       -1.18600000       1.61480000      -0.34290000
H        0.36310000      -2.45980000      -0.20720000
H        0.81100000      -4.27140000      -2.96700000
H        0.24360000      -4.50130000      -1.30220000
H       -1.84960000      -4.07360000      -3.50870000
