16
Properties=species:S:1:pos:R:3 gdb_8372=T pbc="F F F"
C        0.12150000       1.58410000      -0.26740000
C        0.03020000       0.09120000      -0.04420000
C        1.27730000      -0.79180000      -0.09650000
C        0.57340000      -0.53880000       1.18950000
C        1.04440000       0.04320000       2.51330000
C        0.24750000      -1.12640000       3.10150000
O       -0.01570000      -1.57110000       4.17060000
O       -0.14550000      -1.60240000       1.87230000
H        1.03870000       1.99490000       0.16790000
H        0.12940000       1.82050000      -1.33650000
H       -0.72720000       2.10790000       0.18540000
H       -0.87090000      -0.38180000      -0.42610000
H        1.18030000      -1.77920000      -0.53420000
H        2.24050000      -0.31520000      -0.25340000
H        2.11640000      -0.00020000       2.71450000
H        0.65560000       1.02770000       2.78080000
