21
Properties=species:S:1:pos:R:3 gdb_113955=T pbc="F F F"
O       -0.33090000       1.42680000      -0.69770000
C       -0.00090000       0.20550000      -0.04650000
C       -1.28460000      -0.53660000       0.21580000
C       -1.91640000      -1.38550000      -0.86030000
C       -1.34980000      -2.03840000       0.37870000
C       -0.13790000      -2.94980000       0.30680000
C       -0.54020000      -4.37880000       0.02220000
C        0.15760000      -5.52630000       0.61310000
O       -1.11220000      -5.10570000       1.11540000
H        0.47520000       1.94420000      -0.78500000
H        0.67410000      -0.40040000      -0.67030000
H        0.52090000       0.39790000       0.90520000
H       -1.97150000       0.02920000       0.83930000
H       -2.99140000      -1.34730000      -0.99490000
H       -1.35780000      -1.49820000      -1.78520000
H       -2.08180000      -2.38240000       1.10460000
H        0.55130000      -2.61840000      -0.47900000
H        0.41480000      -2.92620000       1.25420000
H       -1.06140000      -4.53420000      -0.92430000
H        0.16370000      -6.48590000       0.09770000
H        1.00310000      -5.35420000       1.27860000
