16
Properties=species:S:1:pos:R:3 gdb_52369=T pbc="F F F"
O       -0.13060000       0.33980000       0.47790000
C       -0.03230000       1.37500000      -0.12880000
C        1.23080000       2.19870000      -0.23180000
C        1.67780000       2.36600000      -1.69960000
N        2.80860000       3.26500000      -1.84770000
C        2.64220000       4.61870000      -1.82530000
O        1.55410000       5.15710000      -1.71720000
C        3.88660000       5.36560000      -1.95160000
C        4.89730000       6.00920000      -2.04990000
H       -0.90370000       1.80170000      -0.67830000
H        1.01720000       3.20010000       0.16260000
H        2.01220000       1.73140000       0.37320000
H        1.95600000       1.39890000      -2.12730000
H        0.85110000       2.77350000      -2.28910000
H        3.74410000       2.89330000      -1.86900000
H        5.78270000       6.59090000      -2.13640000
