23
Properties=species:S:1:pos:R:3 gdb_103546=T pbc="F F F"
C       -0.50060000       1.32050000       0.34990000
O       -0.21380000      -0.05720000       0.29330000
C        0.79520000      -0.55580000       1.19370000
C        2.18390000      -0.12700000       0.71050000
C        0.49490000      -0.17040000       2.63420000
C       -0.13850000      -1.14370000       3.28550000
C       -0.34010000      -2.36290000       2.42200000
C        0.61730000      -2.10550000       1.23190000
C        0.18980000      -2.74860000      -0.08530000
H        0.37460000       1.94970000       0.13070000
H       -1.25760000       1.51290000      -0.41530000
H       -0.90780000       1.62240000       1.32510000
H        2.29020000       0.96220000       0.69830000
H        2.95940000      -0.52540000       1.37150000
H        2.36600000      -0.49540000      -0.30380000
H        0.74700000       0.80130000       3.04470000
H       -0.49060000      -1.08290000       4.31030000
H       -0.11150000      -3.29960000       2.94320000
H       -1.38550000      -2.43810000       2.09130000
H        1.59570000      -2.50990000       1.51940000
H       -0.77590000      -2.35870000      -0.41340000
H        0.91590000      -2.55540000      -0.88170000
H        0.10630000      -3.83460000       0.03120000
