19
Properties=species:S:1:pos:R:3 gdb_6033=T pbc="F F F"
C       -0.23740000       1.55530000      -0.18260000
C       -0.00450000       0.05210000       0.00720000
C        0.89660000      -0.20810000       1.21980000
C       -1.30020000      -0.72630000       0.07610000
N       -2.12250000      -0.26270000       1.32450000
H       -1.55970000      -0.41050000       2.16520000
H       -2.30050000       0.74130000       1.24950000
H       -3.01190000      -0.75410000       1.42590000
C        0.73850000      -0.51920000      -1.31190000
O        0.08370000      -1.40530000      -1.89670000
O        1.83160000       0.00820000      -1.53250000
H        0.72060000       2.00520000      -0.45470000
H       -0.93740000       1.75630000      -1.00240000
H       -0.60140000       2.07450000       0.72220000
H        0.55390000       0.27820000       2.15070000
H        1.01570000      -1.28100000       1.41290000
H        1.88620000       0.19250000       0.98660000
H       -1.94450000      -0.55390000      -0.78330000
H       -1.14590000      -1.79570000       0.20380000
