17
Properties=species:S:1:pos:R:3 gdb_94135=T pbc="F F F"
C       -0.44380000       1.39910000       0.01120000
C        0.19450000       0.03450000      -0.07530000
O        1.48860000       0.05280000      -0.70960000
C        2.07680000      -0.75580000       0.31490000
C        0.80450000      -0.63850000       1.22570000
C        0.98140000       0.25780000       2.36000000
C        1.14690000       1.00480000       3.28650000
C        0.18410000      -1.89300000       1.62400000
C       -0.33220000      -2.93790000       1.91650000
H        0.19590000       2.09780000       0.55430000
H       -0.61070000       1.78480000      -0.99950000
H       -1.41090000       1.33530000       0.52010000
H       -0.47170000      -0.68060000      -0.57530000
H        2.26900000      -1.78360000      -0.01460000
H        2.98720000      -0.31280000       0.72810000
H        1.28670000       1.65710000       4.11300000
H       -0.78740000      -3.85770000       2.18950000
