23
Properties=species:S:1:pos:R:3 gdb_99697=T pbc="F F F"
C        0.25520000       1.03010000       1.38990000
C        0.18800000      -0.33720000       0.89190000
C        0.14070000      -1.47170000       0.48840000
C        0.05610000      -2.84530000      -0.00800000
C       -1.40720000      -3.32070000       0.02960000
O       -1.42910000      -4.69100000      -0.34090000
C        0.72080000      -3.02990000      -1.40480000
C        0.10250000      -2.13510000      -2.48610000
C        2.23590000      -2.81310000      -1.31160000
H        1.29280000       1.37050000       1.48000000
H       -0.26360000       1.72620000       0.72140000
H       -0.20690000       1.11660000       2.37970000
H        0.60160000      -3.49930000       0.68740000
H       -1.79860000      -3.17440000       1.04680000
H       -2.01740000      -2.70780000      -0.64930000
H       -2.34390000      -4.98580000      -0.35140000
H        0.53640000      -4.07470000      -1.67610000
H        0.59920000      -2.30210000      -3.44730000
H       -0.96270000      -2.34000000      -2.63000000
H        0.21170000      -1.07640000      -2.22870000
H        2.69080000      -3.48520000      -0.57570000
H        2.71590000      -3.00070000      -2.27760000
H        2.46760000      -1.78490000      -1.01380000
