21
Properties=species:S:1:pos:R:3 gdb_40826=T pbc="F F F"
C       -0.20380000       1.37770000      -0.18260000
C        1.20980000       0.97780000       0.16000000
C        0.13010000      -0.06820000       0.07040000
C       -0.36470000      -0.76450000       1.30980000
O       -0.38610000       0.14370000       2.38720000
C       -0.84090000      -0.46620000       3.58760000
C       -2.22720000      -1.08020000       3.38290000
C       -2.17600000      -1.99030000       2.15380000
O       -1.64770000      -1.28620000       1.03870000
H       -0.77230000       1.89370000       0.58100000
H       -0.42860000       1.67380000      -1.20090000
H        1.96260000       0.99910000      -0.62020000
H        1.56880000       1.23350000       1.14970000
H        0.14610000      -0.73080000      -0.78850000
H        0.30360000      -1.60850000       1.57970000
H       -0.12590000      -1.24540000       3.90300000
H       -0.84650000       0.31650000       4.35060000
H       -2.53390000      -1.64380000       4.27110000
H       -2.95680000      -0.28160000       3.21300000
H       -1.55400000      -2.87710000       2.36790000
H       -3.16980000      -2.33850000       1.86050000
