20
Properties=species:S:1:pos:R:3 gdb_10209=T pbc="F F F"
C       -0.10060000       1.54210000      -0.22120000
C       -0.01470000       0.01850000      -0.10200000
C       -1.39100000      -0.63810000       0.05340000
C       -1.31400000      -2.16350000       0.20700000
O       -0.59690000      -2.45640000       1.38890000
C       -0.15580000      -3.79680000       1.46800000
C       -2.73020000      -2.72860000       0.28770000
O       -3.42160000      -2.97560000      -0.66510000
H        0.89300000       1.98640000      -0.33510000
H       -0.70110000       1.84150000      -1.08740000
H       -0.56190000       1.98370000       0.66910000
H        0.48070000      -0.39420000      -0.99080000
H        0.60650000      -0.25750000       0.75580000
H       -1.90290000      -0.22500000       0.93250000
H       -2.02070000      -0.42030000      -0.81690000
H       -0.81860000      -2.59770000      -0.67640000
H        0.37730000      -3.90540000       2.41500000
H       -0.99090000      -4.51340000       1.44970000
H        0.52650000      -4.04540000       0.64130000
H       -3.09050000      -2.85880000       1.33560000
