15
Properties=species:S:1:pos:R:3 gdb_132496=T pbc="F F F"
C       -0.03840000       1.54800000      -0.01950000
C        0.00490000       0.04580000      -0.03970000
C       -0.06870000      -0.70210000      -1.20520000
C       -0.02090000      -2.09120000      -1.12980000
F       -0.09130000      -2.82200000      -2.24900000
C        0.09880000      -2.71240000       0.09740000
N        0.17130000      -2.00660000       1.23370000
C        0.12560000      -0.68730000       1.15780000
O        0.20020000       0.00920000       2.31720000
H        0.86770000       1.96130000       0.43640000
H       -0.13410000       1.95300000      -1.02970000
H       -0.88020000       1.90890000       0.58100000
H       -0.16290000      -0.22160000      -2.17330000
H        0.13710000      -3.79490000       0.16920000
H        0.27780000      -0.65160000       3.01900000
