18
Properties=species:S:1:pos:R:3 gdb_126167=T pbc="F F F"
C       -0.16970000       1.68960000      -0.08250000
C       -0.07950000       0.16330000      -0.04480000
C        0.77800000      -0.42010000      -1.18350000
N        2.20640000      -0.05930000      -1.17410000
H        2.61650000      -2.44290000      -1.91130000
H        2.32310000       0.90530000      -1.46440000
H        2.56840000      -0.11910000      -0.22490000
C        0.68440000      -1.91940000      -1.21920000
N        1.69080000      -2.71530000      -1.61940000
N        1.28870000      -3.99910000      -1.56340000
N        0.06840000      -3.96790000      -1.14110000
N       -0.34070000      -2.68890000      -0.91400000
H        0.81640000       2.15820000       0.00650000
H       -0.62220000       2.03750000      -1.01810000
H       -0.78430000       2.06310000       0.74110000
H        0.34100000      -0.17040000       0.91290000
H       -1.07780000      -0.28080000      -0.10780000
H        0.37380000      -0.05150000      -2.13700000
