15
Properties=species:S:1:pos:R:3 gdb_43453=T pbc="F F F"
N       -0.12310000       1.31010000       0.01330000
C       -0.01660000       0.04700000       0.00500000
N        1.08790000      -0.79300000      -0.00690000
C        0.74370000      -2.14200000      -0.01290000
O        1.48090000      -3.08250000      -0.02310000
O       -0.61420000      -2.21730000      -0.00490000
C       -1.16420000      -0.90600000       0.00650000
C       -2.42960000      -0.65520000       0.77100000
C       -2.43900000      -0.64610000      -0.73910000
H        0.78120000       1.78040000       0.01050000
H        2.05240000      -0.50460000      -0.01120000
H       -2.86480000      -1.51140000       1.27320000
H       -2.49350000       0.29190000       1.29430000
H       -2.50940000       0.30720000      -1.25010000
H       -2.88060000      -1.49620000      -1.24610000
