19
Properties=species:S:1:pos:R:3 gdb_84364=T pbc="F F F"
C        0.05940000       1.59170000      -0.01400000
C        0.05630000       0.06580000      -0.00430000
O       -1.29520000      -0.42910000       0.03030000
C        0.80600000      -0.56100000      -1.16690000
C        1.54440000      -1.60420000      -0.79850000
C        1.48230000      -1.84500000       0.68870000
O        2.75800000      -2.02550000       1.29840000
C        0.73940000      -0.57630000       1.23230000
O        1.67640000       0.32940000       1.78510000
H        1.07770000       1.98250000       0.02830000
H       -0.41800000       1.95940000      -0.93040000
H       -0.49800000       1.97810000       0.84320000
H       -1.71920000      -0.18230000      -0.79860000
H        0.68140000      -0.20290000      -2.18480000
H        2.12420000      -2.24380000      -1.45570000
H        0.92600000      -2.75820000       0.92590000
H        3.32720000      -1.32990000       0.94780000
H       -0.03280000      -0.83720000       1.96630000
H        2.21650000      -0.19330000       2.39090000
