14
Properties=species:S:1:pos:R:3 gdb_25023=T pbc="F F F"
N       -0.15940000       1.24710000       0.15780000
C       -0.03920000       0.00320000       0.05740000
O        1.08530000      -0.72680000      -0.26270000
C        0.71310000      -2.05600000      -0.24890000
C       -0.57650000      -2.14700000       0.07200000
O       -1.06880000      -0.86810000       0.26760000
C       -1.47700000      -3.28650000       0.25110000
C       -2.73820000      -3.17610000       1.00250000
O       -2.74120000      -3.23380000      -0.42230000
H        0.72240000       1.71230000      -0.03950000
H        1.46820000      -2.78570000      -0.48120000
H       -0.97390000      -4.25120000       0.20290000
H       -3.12620000      -4.05670000       1.51220000
H       -3.01640000      -2.21570000       1.43000000
