21
Properties=species:S:1:pos:R:3 gdb_65126=T pbc="F F F"
C        0.95590000      -0.47970000      -1.10190000
C        0.07240000       0.01490000       0.02660000
C        0.66580000       0.17770000       1.38140000
N        0.30760000       1.36280000       0.58160000
C       -1.36120000      -0.45930000      -0.06640000
C       -2.58820000       0.37290000       0.37930000
C       -2.35040000       1.19070000      -0.90800000
N       -2.12460000      -0.25510000      -1.40300000
C       -3.37000000      -0.57450000      -0.55670000
H        1.99920000      -0.18760000      -0.94210000
H        0.91860000      -1.57200000      -1.17830000
H        0.61850000      -0.07730000      -2.06190000
H        0.05490000       0.02930000       2.26830000
H        1.71640000      -0.07070000       1.51050000
H        1.14500000       1.76380000       0.16470000
H       -1.38630000      -1.51920000       0.21880000
H       -2.85020000       0.72450000       1.38260000
H       -3.21970000       1.66490000      -1.37260000
H       -1.47130000       1.82870000      -0.95630000
H       -3.45460000      -1.62980000      -0.28040000
H       -4.29680000      -0.20270000      -1.00150000
