17
Properties=species:S:1:pos:R:3 gdb_84391=T pbc="F F F"
O        0.13550000       1.41400000      -0.13760000
C        0.04740000       0.01340000      -0.01780000
C        0.67460000      -0.57040000       1.22900000
C       -0.03720000      -1.57540000       1.73170000
C       -1.28150000      -1.86280000       0.92060000
O       -2.42490000      -2.20130000       1.67030000
C       -1.41520000      -0.56880000       0.03270000
C       -2.31610000       0.38580000       0.66520000
C       -3.02960000       1.17470000       1.22990000
H       -0.43370000       1.79870000       0.54140000
H        0.54960000      -0.37330000      -0.91340000
H        1.62480000      -0.20250000       1.59940000
H        0.22100000      -2.18440000       2.59060000
H       -1.11630000      -2.72540000       0.26300000
H       -2.70440000      -1.40800000       2.14510000
H       -1.78750000      -0.80540000      -0.96780000
H       -3.68400000       1.87120000       1.69420000
