17
Properties=species:S:1:pos:R:3 gdb_77263=T pbc="F F F"
C       -0.11410000       1.56630000       0.10400000
C       -0.02760000       0.05910000       0.03140000
C        0.40470000      -0.63040000      -1.21820000
O        0.71280000       0.18600000      -2.30300000
C        1.66490000      -0.27370000      -3.16140000
N        1.85460000       0.33270000      -4.24650000
C        1.33040000      -0.65620000       0.00490000
C        2.54700000       0.10030000      -0.00700000
N        3.54000000       0.69450000      -0.01650000
H        0.65150000       2.04240000      -0.51000000
H       -1.09150000       1.90290000      -0.25430000
H        0.00860000       1.90640000       1.13630000
H       -0.77830000      -0.47270000       0.60840000
H       -0.05900000      -1.57710000      -1.48640000
H        2.19200000      -1.16050000      -2.78970000
H        2.60840000      -0.10970000      -4.76820000
H        1.40400000      -1.60090000       0.53350000
