19
Properties=species:S:1:pos:R:3 gdb_94893=T pbc="F F F"
C        0.13080000       1.56600000      -0.08640000
C       -0.03870000       0.05750000       0.09100000
O        0.52560000      -0.63090000      -1.04510000
C        1.47910000      -1.62110000      -0.64100000
C        1.54490000      -1.47240000       0.84440000
C        0.69460000      -0.54160000       1.25210000
C        0.73980000      -0.41340000       2.74050000
O        1.72770000      -1.37270000       3.14370000
C        2.26180000      -2.07180000       2.01040000
H        1.19130000       1.83280000      -0.11030000
H       -0.33010000       1.88530000      -1.02500000
H       -0.35060000       2.10750000       0.73510000
H       -1.11630000      -0.17360000       0.13600000
H        1.13860000      -2.62070000      -0.95560000
H        2.43940000      -1.43320000      -1.14440000
H        1.04010000       0.58860000       3.08350000
H       -0.22190000      -0.64730000       3.22360000
H        2.07940000      -3.15220000       2.12190000
H        3.35280000      -1.92910000       1.97030000
