21
Properties=species:S:1:pos:R:3 gdb_115822=T pbc="F F F"
C       -0.01730000       1.45270000       0.17260000
C        0.07610000      -0.04080000      -0.14810000
C       -1.27960000      -0.71800000      -0.15340000
O       -2.11200000      -0.17010000      -1.16700000
C       -2.93240000      -1.22100000      -1.66800000
C       -2.41060000      -2.46400000      -0.95210000
C       -3.28080000      -3.37210000      -0.12470000
C       -2.60490000      -3.86980000      -1.39520000
O       -1.14790000      -2.09070000      -0.46080000
H        0.97440000       1.91370000       0.17010000
H       -0.63740000       1.96860000      -0.56520000
H       -0.46010000       1.62110000       1.16050000
H        0.52870000      -0.20110000      -1.13220000
H        0.70230000      -0.55610000       0.58880000
H       -1.78440000      -0.60730000       0.82580000
H       -3.99070000      -1.03020000      -1.44840000
H       -2.80290000      -1.27930000      -2.75560000
H       -2.87590000      -3.71870000       0.81950000
H       -4.35500000      -3.21760000      -0.13750000
H       -3.21630000      -4.05330000      -2.27270000
H       -1.76060000      -4.54070000      -1.28260000
