17
Properties=species:S:1:pos:R:3 gdb_47267=T pbc="F F F"
O       -0.13440000       0.01450000       0.29530000
C        0.00300000       1.18380000       0.05570000
O       -1.02260000       2.07630000      -0.00410000
C       -1.92600000       2.12770000       1.12020000
C       -1.53690000       3.31640000       1.96920000
C       -0.30220000       3.57730000       2.40550000
C        0.91440000       2.67050000       2.28750000
C        1.68460000       2.64230000       0.96810000
C        1.30380000       1.91330000      -0.08060000
H       -2.93490000       2.24580000       0.71940000
H       -1.88470000       1.17220000       1.65630000
H       -2.32380000       4.03780000       2.17320000
H       -0.14200000       4.50820000       2.94400000
H        1.61550000       2.94370000       3.08140000
H        0.60090000       1.64200000       2.50780000
H        2.62490000       3.18520000       0.93510000
H        1.89410000       1.80980000      -0.98330000
