14
Properties=species:S:1:pos:R:3 gdb_18843=T pbc="F F F"
O        0.01230000       0.06720000      -0.01720000
C       -0.02130000       1.26220000       0.07130000
C       -1.12100000       2.26490000      -0.01060000
C       -0.74230000       3.58940000       0.69560000
C        0.28130000       3.53370000       1.79100000
C        1.35700000       2.87360000       1.35660000
C        1.09340000       2.35880000      -0.04250000
C       -0.06890000       3.24940000      -0.58990000
H       -2.13910000       2.07170000      -0.32190000
H       -1.54630000       4.31690000       0.71010000
H        0.12080000       3.94500000       2.77860000
H        2.23300000       2.60400000       1.93140000
H        1.94630000       2.10710000      -0.66950000
H       -0.11470000       3.77800000      -1.53220000
