22
Properties=species:S:1:pos:R:3 gdb_111493=T pbc="F F F"
C        0.89940000       1.41220000      -0.52350000
C        0.20500000       0.14600000       0.00170000
C        0.10700000      -1.00930000      -1.04010000
N        1.03040000      -2.10050000      -0.66960000
C        2.42540000      -1.67110000      -0.50190000
C        1.53160000      -1.79780000       0.68040000
C        0.86420000      -0.54830000       1.23900000
C        1.79670000       0.30830000       2.08650000
O        1.02730000       1.35070000       2.67600000
H        1.92010000       1.23430000      -0.87580000
H        0.33550000       1.81890000      -1.36960000
H        0.93810000       2.17730000       0.25630000
H       -0.80650000       0.45030000       0.28540000
H       -0.90110000      -1.43720000      -1.04340000
H        0.31990000      -0.67020000      -2.05990000
H        3.16050000      -2.44540000      -0.70470000
H        2.71700000      -0.68160000      -0.83950000
H        1.65420000      -2.64570000       1.35010000
H        0.05990000      -0.87940000       1.90790000
H        2.26010000      -0.32250000       2.86170000
H        2.61130000       0.71420000       1.46900000
H        1.61390000       1.89010000       3.21440000
