21
Properties=species:S:1:pos:R:3 gdb_58533=T pbc="F F F"
C       -0.02400000       1.59360000       0.03200000
C        0.01480000       0.05570000       0.00890000
C        0.87460000      -0.45080000       1.17910000
C       -1.41140000      -0.55200000      -0.00490000
C       -2.30620000       0.01650000      -1.11120000
C       -1.51490000      -2.09130000       0.14830000
O       -2.16280000      -1.93340000       1.45240000
C       -2.10230000      -0.56600000       1.37010000
O       -2.48930000       0.22760000       2.16880000
H        0.99180000       1.99300000       0.10900000
H       -0.47300000       2.01250000      -0.87170000
H       -0.59440000       1.95210000       0.89510000
H        0.49170000      -0.26250000      -0.92970000
H        1.88520000      -0.03860000       1.10370000
H        0.45740000      -0.12920000       2.13930000
H        0.96940000      -1.53980000       1.20080000
H       -1.81950000      -0.07780000      -2.08810000
H       -3.26080000      -0.51680000      -1.15480000
H       -2.52600000       1.07180000      -0.93830000
H       -2.18530000      -2.59140000      -0.55410000
H       -0.58320000      -2.64950000       0.24650000
