19
Properties=species:S:1:pos:R:3 gdb_91520=T pbc="F F F"
C        0.20260000       1.75630000       0.08570000
C        0.07550000       0.24990000       0.17380000
O        0.87730000      -0.46420000      -0.81900000
C        1.44100000      -1.29130000       0.18730000
C        2.24710000      -0.52160000       1.15600000
C        0.73020000      -0.53060000       1.32290000
C        0.10420000      -1.11710000       2.53090000
C       -1.37060000      -0.83080000       2.75440000
O        0.74150000      -1.81070000       3.29840000
H        1.22820000       2.08610000       0.26850000
H       -0.09760000       2.10040000      -0.90890000
H       -0.45350000       2.23280000       0.82210000
H       -0.97150000      -0.05230000       0.04530000
H        1.50350000      -2.35830000       0.00660000
H        2.73790000      -1.10290000       1.92920000
H        2.75340000       0.38260000       0.83370000
H       -1.97270000      -1.28420000       1.95870000
H       -1.67590000      -1.24410000       3.71600000
H       -1.56880000       0.24670000       2.73190000
