16
Properties=species:S:1:pos:R:3 gdb_19475=T pbc="F F F"
O       -0.09940000       1.41160000      -0.27140000
C        0.00360000       0.04340000       0.10860000
C       -1.39720000      -0.53390000       0.07200000
C       -1.97410000      -0.83480000      -1.35390000
O       -1.13500000      -2.04050000      -1.37530000
C       -1.50580000      -2.09580000       0.04260000
C       -3.03110000      -2.29050000      -0.04150000
C       -3.35160000      -1.42380000      -1.00460000
H        0.78840000       1.77870000      -0.30990000
H        0.65080000      -0.52090000      -0.57490000
H        0.41270000      -0.05480000       1.12790000
H       -2.05920000      -0.00450000       0.76140000
H       -1.84670000      -0.17220000      -2.20760000
H       -0.89480000      -2.76510000       0.64800000
H       -3.63950000      -2.95850000       0.54960000
H       -4.30450000      -1.16410000      -1.44100000
