13
Properties=species:S:1:pos:R:3 gdb_23539=T pbc="F F F"
O       -0.08180000       1.29320000       0.03840000
N        0.05360000      -0.08920000      -0.07090000
C       -1.06050000      -0.67450000       0.02840000
C       -1.44160000      -2.11310000      -0.09570000
O       -2.25850000      -2.41230000       1.05830000
C       -2.87620000      -1.75040000      -0.02740000
C       -2.54420000      -0.23410000       0.10190000
C       -3.02980000       0.45150000       1.28810000
N       -3.43380000       0.99130000       2.22620000
H        0.82880000       1.60280000      -0.02990000
H       -0.92750000      -2.93200000      -0.57930000
H       -3.74580000      -2.19730000      -0.49190000
H       -2.80640000       0.33490000      -0.79660000
