16
Properties=species:S:1:pos:R:3 gdb_19546=T pbc="F F F"
O       -0.25830000       0.05630000       0.15650000
C       -0.03310000       1.22540000      -0.06540000
C        1.27040000       1.85820000      -0.00860000
C        1.68110000       3.23930000       0.53130000
C        2.82100000       2.59850000       1.32600000
C        2.75020000       1.42730000       0.30710000
C        3.17540000       2.08290000      -1.03610000
C        1.89940000       2.92040000      -0.92690000
H       -0.85250000       1.93110000      -0.34240000
H        1.00550000       4.02620000       0.84200000
H        3.76910000       3.14310000       1.40070000
H        2.48600000       2.29470000       2.32030000
H        3.07460000       0.42590000       0.57440000
H        4.13770000       2.60690000      -1.05740000
H        3.11490000       1.38000000      -1.87000000
H        1.38720000       3.46860000      -1.70750000
