20
Properties=species:S:1:pos:R:3 gdb_58290=T pbc="F F F"
C        0.05600000       1.53600000      -0.08490000
C       -0.00020000       0.02270000       0.13110000
O        0.58240000      -0.34980000       1.37440000
C       -1.42330000      -0.54010000       0.00510000
C       -1.47870000      -2.06090000       0.05830000
O       -2.15550000       0.01310000       1.13070000
C       -3.48660000       0.21290000       0.95010000
N       -4.03080000       0.75770000       2.07990000
O       -4.09180000      -0.02310000      -0.06870000
H        1.08160000       1.89110000       0.04230000
H       -0.28440000       1.80450000      -1.09050000
H       -0.58280000       2.05370000       0.63780000
H        0.61200000      -0.47280000      -0.63180000
H       -0.00860000      -0.01750000       2.06010000
H       -1.89480000      -0.17590000      -0.91130000
H       -0.99930000      -2.42620000       0.96960000
H       -2.51510000      -2.40390000       0.02220000
H       -0.94960000      -2.48310000      -0.80200000
H       -3.51700000       0.70130000       2.94260000
H       -5.03510000       0.75370000       2.13050000
