16
Properties=species:S:1:pos:R:3 gdb_98061=T pbc="F F F"
C       -0.01090000       1.25150000      -0.37090000
N       -0.07340000      -0.08380000       0.18800000
C       -1.13350000      -0.90010000       0.04210000
O       -2.16840000      -0.66630000      -0.56260000
C       -0.93710000      -2.26190000       0.72700000
O        0.10730000      -2.59150000       1.23540000
C       -2.19080000      -3.16120000       0.75510000
C       -2.49060000      -3.96030000      -0.48430000
O       -2.83760000      -3.17930000       1.77270000
H        0.13400000       1.99920000       0.41560000
H        0.80720000       1.33870000      -1.09380000
H       -0.95750000       1.44330000      -0.87780000
H        0.70410000      -0.46370000       0.70980000
H       -1.61650000      -4.55360000      -0.77600000
H       -3.34720000      -4.61300000      -0.30860000
H       -2.70630000      -3.26280000      -1.30090000
