15
Properties=species:S:1:pos:R:3 gdb_21522=T pbc="F F F"
N       -0.32260000       1.18810000      -0.48810000
C       -0.19100000      -0.14550000      -0.12140000
C       -1.15660000      -1.03710000       0.33230000
C       -2.61270000      -0.73570000       0.47510000
O       -3.13530000      -0.02230000      -0.65760000
C       -0.42640000      -2.21780000       0.60610000
N        0.86940000      -2.09370000       0.35820000
N        0.98840000      -0.80960000      -0.08730000
H        0.30530000       1.48470000      -1.22420000
H       -1.28580000       1.38500000      -0.73820000
H       -3.17730000      -1.66230000       0.65220000
H       -2.81430000      -0.07160000       1.32410000
H       -2.95970000      -0.56870000      -1.43200000
H       -0.80990000      -3.15820000       0.97810000
H        1.89940000      -0.46120000      -0.33200000
