19
Properties=species:S:1:pos:R:3 gdb_122486=T pbc="F F F"
O       -0.59840000       1.15270000      -1.22860000
C       -0.34240000       0.19230000      -0.22300000
C       -1.61800000      -0.52340000       0.20800000
O       -2.15060000      -1.17470000      -0.94470000
C       -3.48660000      -0.95910000      -1.23890000
C       -3.98990000       0.43100000      -1.49250000
C       -3.80020000      -0.53170000      -2.66430000
C       -2.72390000      -0.30710000      -3.58420000
C       -1.82820000      -0.11690000      -4.36610000
H       -0.90450000       0.67030000      -2.00890000
H        0.39530000      -0.55320000      -0.55670000
H        0.08620000       0.72580000       0.63280000
H       -1.40540000      -1.26880000       0.98720000
H       -2.33720000       0.20190000       0.60440000
H       -4.17580000      -1.67410000      -0.78940000
H       -5.00410000       0.68270000      -1.20400000
H       -3.26540000       1.23320000      -1.41350000
H       -4.70020000      -0.95220000      -3.10250000
H       -1.04740000       0.04400000      -5.06760000
