14
Properties=species:S:1:pos:R:3 gdb_43614=T pbc="F F F"
N        0.09690000       1.00230000       0.71040000
C       -0.00300000      -0.08110000       0.09280000
C       -1.15360000      -0.97860000      -0.30600000
C       -0.04040000      -1.84030000      -0.96620000
O        0.96880000      -0.88020000      -0.48350000
C        0.16570000      -3.18000000      -0.46830000
C        0.32280000      -4.31120000      -0.06770000
C        0.49880000      -5.58010000       0.38770000
C        0.65530000      -6.70730000       0.79090000
H        1.06870000       1.30790000       0.78250000
H       -1.67460000      -1.45370000       0.52520000
H       -1.87300000      -0.53490000      -0.99490000
H       -0.05460000      -1.82840000      -2.06050000
H        0.79400000      -7.69830000       1.14610000
