18
Properties=species:S:1:pos:R:3 gdb_13514=T pbc="F F F"
C       -0.35680000       1.45810000       0.13510000
C        0.10170000       0.01670000       0.00340000
C        0.92190000      -0.39690000      -1.25500000
C        1.99120000      -0.98240000      -0.29530000
N        1.26920000      -0.35830000       0.82600000
C        1.16810000      -0.78570000       2.12870000
N        2.26730000      -1.50430000       2.58040000
O        0.18520000      -0.57070000       2.81660000
H        0.47280000       2.14960000      -0.04480000
H       -1.15200000       1.67290000      -0.58720000
H       -0.74540000       1.63400000       1.14140000
H       -0.74130000      -0.65860000       0.19650000
H        0.44390000      -1.10870000      -1.92830000
H        1.28010000       0.45860000      -1.83110000
H        2.00370000      -2.07810000      -0.24540000
H        3.01780000      -0.62440000      -0.43420000
H        3.16320000      -1.30700000       2.16070000
H        2.28830000      -1.59640000       3.58470000
