19
Properties=species:S:1:pos:R:3 gdb_102031=T pbc="F F F"
C       -0.02610000       1.46100000       0.06340000
C        0.05360000      -0.06320000      -0.01830000
N        0.70690000      -0.55240000      -1.24470000
C        2.08480000      -0.74970000      -1.19940000
O        2.83430000      -1.01180000      -2.10300000
C       -0.09860000      -0.67840000      -2.38950000
N       -1.28990000      -0.23030000      -2.36920000
O        0.54840000      -1.31880000      -3.37830000
C       -0.13460000      -1.46830000      -4.61370000
H        0.97180000       1.91090000       0.03870000
H       -0.61220000       1.85410000      -0.76920000
H       -0.50940000       1.75860000       0.99940000
H        0.62320000      -0.46140000       0.82700000
H       -0.94590000      -0.49660000       0.01490000
H        2.43640000      -0.62180000      -0.15640000
H       -1.78780000      -0.42140000      -3.23250000
H       -0.42430000      -0.49600000      -5.02890000
H        0.57410000      -1.95450000      -5.28390000
H       -1.02520000      -2.09930000      -4.50560000
