22
Properties=species:S:1:pos:R:3 gdb_58917=T pbc="F F F"
C       -0.03300000       1.57430000       0.05720000
C       -0.01320000       0.03760000       0.02000000
C        0.86370000      -0.52800000       1.14630000
C       -1.42810000      -0.51100000       0.01700000
C       -2.54180000      -0.23040000      -0.99330000
N       -3.26930000      -1.18590000      -0.06050000
C       -1.95380000      -1.98680000       0.13040000
C       -2.12390000      -1.95480000       1.65290000
C       -2.52120000      -0.56360000       1.14890000
H        0.98180000       1.97970000      -0.00790000
H       -0.61360000       1.98960000      -0.77230000
H       -0.47780000       1.93680000       0.99120000
H        0.43640000      -0.26670000      -0.93740000
H        0.92010000      -1.62020000       1.10840000
H        1.88410000      -0.13910000       1.06790000
H        0.47820000      -0.24210000       2.13120000
H       -2.98380000       0.77180000      -1.01820000
H       -2.42400000      -0.61980000      -2.01130000
H       -1.72540000      -2.82510000      -0.53190000
H       -2.94710000      -2.56110000       2.04090000
H       -1.23050000      -2.04080000       2.27160000
H       -2.96410000       0.27630000       1.68850000
