20
Properties=species:S:1:pos:R:3 gdb_113497=T pbc="F F F"
C       -0.29400000       1.52260000       0.16910000
C        0.24240000       0.10630000      -0.06960000
C        0.87240000      -0.49460000       1.17000000
C        0.02990000      -1.21540000       2.18880000
C        0.98830000      -1.98810000       1.32350000
C        0.75590000      -3.12130000       0.32870000
O        1.95840000      -3.78360000       0.84250000
C        2.18030000      -2.76620000       1.75740000
N        3.08250000      -2.61080000       2.61460000
H        0.50830000       2.19900000       0.48240000
H       -0.74150000       1.93370000      -0.74080000
H       -1.05690000       1.52740000       0.95430000
H       -0.57390000      -0.54200000      -0.41400000
H        0.98100000       0.12580000      -0.88140000
H        1.72140000       0.05610000       1.56870000
H        0.28300000      -1.12600000       3.23940000
H       -1.02930000      -1.33320000       1.97870000
H       -0.12920000      -3.74290000       0.48850000
H        0.86840000      -2.87870000      -0.73160000
H        3.74710000      -3.38520000       2.60830000
