12
Properties=species:S:1:pos:R:3 gdb_130715=T pbc="F F F"
O       -0.06130000      -0.06580000       0.00390000
C        0.00650000       1.13940000       0.00910000
N       -1.17780000       1.91050000       0.02920000
N       -1.27900000       3.23290000       0.03730000
C       -0.15300000       3.88350000       0.02520000
C        1.10510000       3.17930000       0.00440000
N        1.18820000       1.87550000      -0.00340000
C        2.30620000       3.95450000      -0.00810000
C        3.28840000       4.64900000      -0.01790000
H       -2.05170000       1.40040000       0.03860000
H       -0.20100000       4.96450000       0.03140000
H        4.16980000       5.24310000      -0.02690000
