18
Properties=species:S:1:pos:R:3 gdb_116751=T pbc="F F F"
C        0.55820000       0.99660000       0.44620000
C       -0.26290000       0.13210000      -0.51310000
N        0.42950000      -0.84250000      -1.34420000
C        1.67100000      -0.96640000      -1.27060000
O        2.26640000      -1.91430000      -2.09080000
C        3.60960000      -2.06380000      -2.02490000
O        4.34950000      -1.43850000      -1.30700000
C        4.09390000      -3.13410000      -2.98050000
O        5.48180000      -3.28240000      -2.90570000
H        1.09360000       0.39080000       1.18480000
H        1.29040000       1.61330000      -0.08550000
H       -0.10910000       1.67040000       0.99130000
H       -1.02250000      -0.42650000       0.04850000
H       -0.82950000       0.77460000      -1.19910000
H        2.38680000      -0.43470000      -0.64720000
H        3.57290000      -4.07140000      -2.73310000
H        3.77060000      -2.85560000      -3.99490000
H        5.78470000      -2.64430000      -2.24380000
