20
Properties=species:S:1:pos:R:3 gdb_87913=T pbc="F F F"
C       -0.06540000       1.53550000      -0.07390000
C        0.00600000       0.02870000       0.04130000
C        1.30830000      -0.72020000      -0.19880000
C        0.70320000      -0.64910000       1.18520000
C        1.37080000       0.08770000       2.35080000
C        1.64780000      -1.02560000       3.37790000
C        0.64000000      -2.12940000       3.03620000
O        0.34520000      -3.09510000       3.70510000
N        0.13740000      -1.82090000       1.79950000
H        0.84960000       2.00970000       0.29400000
H       -0.19720000       1.84070000      -1.11750000
H       -0.90470000       1.94160000       0.50140000
H       -0.88540000      -0.48490000      -0.31470000
H        1.26710000      -1.66600000      -0.72920000
H        2.20150000      -0.13370000      -0.39430000
H        2.27000000       0.62300000       2.04110000
H        0.67360000       0.82110000       2.77060000
H        2.65290000      -1.44780000       3.26700000
H        1.53710000      -0.71460000       4.41780000
H       -0.48510000      -2.45590000       1.32530000
