17
Properties=species:S:1:pos:R:3 gdb_83014=T pbc="F F F"
C       -0.04840000       1.54510000       0.07190000
C        0.03400000       0.04350000      -0.05940000
C        0.70840000      -0.66280000      -1.17910000
C        1.73040000       0.08530000      -2.03520000
N        2.78800000       0.51150000      -1.10660000
C        2.47400000       0.06380000       0.05140000
C        3.25250000       0.29020000       1.22320000
C        3.88330000       0.47310000       2.23020000
N        1.29100000      -0.73620000       0.18830000
H        0.81340000       2.05900000      -0.35820000
H       -0.94800000       1.90320000      -0.44010000
H       -0.12700000       1.83550000       1.12450000
H       -0.81650000      -0.47490000       0.37830000
H        0.28230000      -1.58550000      -1.56080000
H        2.16070000      -0.56900000      -2.80220000
H        1.32660000       0.96130000      -2.55770000
H        4.45140000       0.63830000       3.11260000
