14
Properties=species:S:1:pos:R:3 gdb_116824=T pbc="F F F"
C       -0.03170000       1.41730000       0.00980000
O        0.04890000       0.00670000       0.00150000
C       -1.22420000      -0.59630000       0.01010000
C       -1.08740000      -2.04500000       0.00120000
C       -1.00950000      -3.25380000      -0.00590000
C       -0.91530000      -4.60140000      -0.01390000
C       -0.83310000      -5.81430000      -0.02110000
C       -0.74180000      -7.17040000      -0.02920000
N       -0.66480000      -8.33140000      -0.03620000
H        0.99270000       1.79360000       0.00230000
H       -0.56140000       1.79980000      -0.87620000
H       -0.54490000       1.79020000       0.90950000
H       -1.80170000      -0.29380000       0.90210000
H       -1.81810000      -0.28450000      -0.86780000
