19
Properties=species:S:1:pos:R:3 gdb_79130=T pbc="F F F"
C       -0.32730000       0.98170000       0.74710000
C       -0.10950000      -0.07280000      -0.29250000
C       -1.09240000      -0.80160000      -0.87980000
C       -0.51200000      -1.99920000      -1.64680000
C        0.67720000      -2.21880000      -0.79250000
C        1.21470000      -0.82780000      -0.41300000
C       -0.74910000      -2.77510000      -0.38070000
C       -1.87590000      -1.77340000       0.05300000
O       -2.11620000      -1.46380000       1.38720000
H        0.25790000       0.79820000       1.65880000
H       -0.00040000       1.96250000       0.37480000
H       -1.38590000       1.07090000       1.00730000
H       -0.69690000      -2.27670000      -2.67560000
H        1.37700000      -3.02230000      -1.01700000
H        1.93320000      -0.48300000      -1.17120000
H        1.73510000      -0.77770000       0.55300000
H       -0.85580000      -3.85500000      -0.29860000
H       -2.83050000      -2.13280000      -0.34550000
H       -1.27860000      -1.20910000       1.78950000
