13
Properties=species:S:1:pos:R:3 gdb_2478=T pbc="F F F"
O       -0.01580000       0.05650000      -0.03730000
C        0.04900000       1.24700000      -0.00550000
O       -1.04380000       2.08640000       0.00770000
C       -0.40960000       3.40160000       0.04730000
C        0.69960000       3.26470000      -1.01940000
C        1.22210000       2.21950000       0.02940000
C        0.68240000       3.20850000       1.12310000
H       -1.17640000       4.17190000       0.06130000
H        0.40450000       2.90570000      -2.00720000
H        1.34460000       4.14200000      -1.09310000
H        2.21890000       1.78870000       0.02610000
H        1.32570000       4.08040000       1.25300000
H        0.37150000       2.79830000       2.08580000
