14
Properties=species:S:1:pos:R:3 gdb_132884=T pbc="F F F"
O        0.15680000       0.05310000       0.03360000
C       -0.00650000       1.28890000       0.04020000
C       -1.21500000       2.02920000       0.02410000
C       -1.20510000       3.42260000       0.02270000
F       -2.37140000       4.07840000       0.00570000
C       -0.05540000       4.16800000       0.03190000
N        1.13240000       3.45960000       0.04780000
C        1.20860000       2.12890000       0.04890000
N        2.37750000       1.45080000       0.10420000
H        3.22850000       1.83030000      -0.27680000
H        2.18970000       0.45650000      -0.02210000
H       -2.16010000       1.50110000       0.00020000
H       -0.00440000       5.24330000       0.02780000
H        1.98990000       3.99420000       0.07470000
