15
Properties=species:S:1:pos:R:3 gdb_98387=T pbc="F F F"
C        0.02970000       1.31300000      -0.25700000
O       -0.13000000      -0.11080000      -0.33000000
C       -1.30060000      -0.59340000       0.10560000
N       -2.25640000       0.15210000       0.47010000
N       -1.28590000      -2.01710000       0.06180000
C       -2.47340000      -2.67150000      -0.35040000
O       -2.66530000      -3.85070000      -0.32180000
C       -0.08640000      -2.71330000       0.37800000
O        0.05690000      -3.89780000       0.30660000
H        1.04950000       1.50610000      -0.58920000
H       -0.69180000       1.80900000      -0.90980000
H       -0.12150000       1.66320000       0.76680000
H       -3.03970000      -0.37190000       0.84780000
H       -3.20860000      -1.93430000      -0.72070000
H        0.69470000      -2.01050000       0.70490000
