17
Properties=species:S:1:pos:R:3 gdb_125758=T pbc="F F F"
C       -0.28740000       1.40800000       0.10270000
C       -0.03680000      -0.05600000      -0.00810000
N        0.70950000      -0.56990000      -0.94940000
O        0.67280000      -1.94740000      -0.67980000
C       -0.09880000      -2.10420000       0.40280000
C       -0.31260000      -3.48570000       0.91580000
C       -1.21120000      -3.52180000       2.14750000
O       -1.32490000      -4.88440000       2.52120000
N       -0.56740000      -0.98440000       0.86670000
H        0.06130000       1.77990000       1.07080000
H        0.23020000       1.94170000      -0.69560000
H       -1.35990000       1.61460000       0.03910000
H       -0.74950000      -4.10380000       0.12300000
H        0.65680000      -3.93850000       1.15410000
H       -0.76740000      -2.91160000       2.94690000
H       -2.18770000      -3.07860000       1.90580000
H       -1.88810000      -4.93670000       3.29860000
