19
Properties=species:S:1:pos:R:3 gdb_83555=T pbc="F F F"
C       -0.02160000       1.71190000       0.03790000
C        0.02130000       0.19450000      -0.00490000
C        0.82430000      -0.58400000      -1.10740000
C        2.23220000      -0.02520000      -0.89460000
O        2.29640000      -0.03920000       0.55340000
C        1.01520000      -0.57890000       0.90020000
C        0.87940000      -1.78820000      -0.08800000
C       -0.30610000      -2.60780000       0.01660000
C       -1.27810000      -3.31100000       0.10910000
H        0.97770000       2.14330000       0.13590000
H       -0.48850000       2.12050000      -0.86510000
H       -0.61210000       2.05250000       0.89500000
H       -0.97930000      -0.23340000       0.07860000
H        0.46340000      -0.70840000      -2.12730000
H        3.02290000      -0.66020000      -1.30960000
H        2.36280000       0.99530000      -1.27030000
H        0.92960000      -0.67570000       1.98110000
H        1.77920000      -2.40830000      -0.14610000
H       -2.13670000      -3.93040000       0.19040000
