16
Properties=species:S:1:pos:R:3 gdb_62380=T pbc="F F F"
O        0.17110000       1.34330000      -0.10350000
C        0.09320000      -0.04480000      -0.05420000
C        1.01990000      -0.59910000      -1.02610000
C        1.79610000      -1.02160000      -1.83920000
C        0.03720000      -0.65510000       1.43240000
N       -1.35400000      -0.08380000       1.44320000
C       -1.40390000      -0.62370000       0.04040000
C       -1.13080000      -2.11440000       0.20170000
C       -0.16710000      -2.13540000       1.13260000
H       -0.46700000       1.64190000       0.56390000
H        2.48180000      -1.39830000      -2.55740000
H        0.73310000      -0.33150000       2.20560000
H       -1.97300000      -0.59580000       2.07240000
H       -2.19320000      -0.26760000      -0.62100000
H       -1.55760000      -2.91790000      -0.38020000
H        0.41090000      -2.96090000       1.52120000
