20
Properties=species:S:1:pos:R:3 gdb_112676=T pbc="F F F"
C       -0.10440000       1.23290000      -0.39660000
N       -0.07150000      -0.15670000      -0.01110000
C       -1.20060000      -0.81920000       0.61280000
C       -0.78080000      -2.30850000       0.66080000
C       -1.36690000      -3.07540000      -0.52440000
O       -0.91380000      -4.41650000      -0.44570000
C        0.75660000      -2.25500000       0.60210000
C        1.08580000      -0.89610000      -0.01200000
O        2.16440000      -0.51240000      -0.41600000
H        0.87840000       1.48530000      -0.79910000
H       -0.86940000       1.41320000      -1.16160000
H       -0.31890000       1.88370000       0.46190000
H       -1.39300000      -0.41560000       1.61850000
H       -2.11520000      -0.66410000       0.02450000
H       -1.13620000      -2.78520000       1.57750000
H       -2.46690000      -3.02440000      -0.48460000
H       -1.04680000      -2.59680000      -1.46440000
H       -1.18080000      -4.87620000      -1.24670000
H        1.21130000      -2.29550000       1.59790000
H        1.18820000      -3.06850000       0.01730000
