20
Properties=species:S:1:pos:R:3 gdb_59301=T pbc="F F F"
C       -0.05670000       1.59740000      -0.00450000
C        0.01170000       0.07380000       0.02380000
O        0.75300000      -0.39840000       1.15040000
C       -1.38530000      -0.56640000       0.00950000
N       -2.18180000      -0.13490000      -1.15750000
C       -2.72880000      -1.18650000      -1.60690000
O       -2.48690000      -2.37940000      -1.02810000
C       -1.43560000      -2.12900000      -0.03820000
C       -0.18090000      -2.86800000      -0.48080000
H        0.95220000       2.01850000       0.01440000
H       -0.58040000       1.94350000      -0.89770000
H       -0.60430000       1.97520000       0.86920000
H        0.57330000      -0.27620000      -0.84850000
H        0.39100000       0.02690000       1.93580000
H       -1.90380000      -0.21210000       0.91410000
H       -3.40920000      -1.22530000      -2.45120000
H       -1.79850000      -2.54220000       0.90560000
H        0.15680000      -2.52030000      -1.46170000
H        0.62070000      -2.70840000       0.24270000
H       -0.39060000      -3.93830000      -0.55610000
