17
Properties=species:S:1:pos:R:3 gdb_91882=T pbc="F F F"
C        0.02060000       1.52960000       0.07050000
C       -0.01950000       0.01740000      -0.06880000
C        0.78710000      -0.50930000      -1.25560000
C        0.92730000      -2.01950000      -1.19300000
O        2.06560000      -2.49600000      -0.48070000
C        0.77260000      -2.68010000       0.11550000
C        0.56850000      -1.85200000       1.36010000
O        0.56020000      -2.33470000       2.45850000
O        0.46360000      -0.51360000       1.19200000
H        1.05030000       1.87260000       0.20760000
H       -0.38890000       2.00310000      -0.82680000
H       -0.56740000       1.84930000       0.93400000
H       -1.06190000      -0.31340000      -0.17620000
H        0.28490000      -0.21040000      -2.18120000
H        1.78730000      -0.06310000      -1.26130000
H        0.69200000      -2.59140000      -2.08930000
H        0.44540000      -3.71230000       0.20710000
