18
Properties=species:S:1:pos:R:3 gdb_33747=T pbc="F F F"
C       -0.00700000      -1.13720000      -0.07570000
C        0.01310000       0.06490000      -0.01730000
C        0.00340000       1.49660000       0.01620000
C       -0.66260000       2.44470000       1.07950000
C       -0.04530000       3.40490000       0.01650000
C        1.21720000       2.48960000       0.03010000
C       -0.61130000       2.44700000      -1.04390000
C       -0.67040000       2.38460000      -2.50650000
N       -1.90990000       2.43350000      -1.66510000
H       -0.01460000      -2.19820000      -0.11720000
H       -1.75170000       2.41170000       1.14030000
H       -0.19430000       2.44570000       2.06670000
H       -0.07400000       4.49260000       0.01370000
H        1.80580000       2.49500000       0.95010000
H        1.84750000       2.49350000      -0.86160000
H       -0.50530000       3.26950000      -3.11500000
H       -0.41850000       1.44360000      -2.98990000
H       -2.32490000       1.50500000      -1.61170000
