18
Properties=species:S:1:pos:R:3 gdb_70803=T pbc="F F F"
C       -0.04520000       1.44850000       0.10480000
C        0.05710000      -0.03760000      -0.06260000
C       -0.58570000      -0.88830000      -1.15340000
C       -0.40970000      -2.05110000      -0.15210000
C       -1.32740000      -3.23070000      -0.05990000
N       -0.30600000      -0.98820000       1.01970000
C        1.16010000      -0.83170000       0.58730000
C        1.11130000      -2.19400000      -0.01440000
O        1.87400000      -3.11280000      -0.11800000
H        0.56740000       1.96690000      -0.64040000
H       -1.08290000       1.77610000      -0.01670000
H        0.29240000       1.75230000       1.09990000
H       -1.64020000      -0.61800000      -1.27120000
H       -0.11160000      -0.97210000      -2.13630000
H       -1.22730000      -3.84830000      -0.95880000
H       -1.07740000      -3.85180000       0.80490000
H       -2.37110000      -2.91420000       0.02610000
H        1.90470000      -0.38350000       1.23300000
