14
Properties=species:S:1:pos:R:3 gdb_19997=T pbc="F F F"
N       -0.11020000      -1.09890000      -0.39980000
C       -0.04730000       0.03650000      -0.19200000
C        0.03870000       1.46150000       0.02640000
N        0.23700000       1.91040000       1.41630000
C        1.31740000       2.12050000       0.45400000
C        2.57410000       1.34700000       0.67670000
C        3.74480000       1.54360000      -0.18640000
O        3.69350000       2.11490000       1.12190000
H       -0.61290000       2.04020000      -0.62290000
H       -0.28770000       2.76470000       1.58330000
H        1.47840000       3.12490000       0.06630000
H        2.44050000       0.39080000       1.18000000
H        4.45350000       0.72840000      -0.31850000
H        3.69650000       2.25580000      -1.00940000
