19
Properties=species:S:1:pos:R:3 gdb_99644=T pbc="F F F"
C       -0.49060000       1.32040000      -0.01220000
N        0.01920000      -0.04030000       0.06390000
C        1.41660000      -0.26820000      -0.27750000
C        0.93820000      -0.44650000       1.12310000
C        1.39790000       0.49380000       2.23450000
C        0.40480000       0.50980000       3.42650000
O        0.80470000       1.38300000       4.45430000
C        2.72010000       0.09130000       2.72470000
N        3.74000000      -0.23630000       3.16030000
H        0.24620000       2.10600000       0.21970000
H       -0.84650000       1.49530000      -1.03190000
H       -1.34340000       1.43190000       0.66490000
H        1.62930000      -1.12910000      -0.90500000
H        2.04150000       0.60360000      -0.47340000
H        0.76000000      -1.46050000       1.47890000
H        1.48990000       1.51880000       1.86200000
H       -0.56060000       0.87370000       3.06440000
H        0.26210000      -0.52050000       3.78530000
H        1.61180000       1.03410000       4.85010000
