16
Properties=species:S:1:pos:R:3 gdb_12897=T pbc="F F F"
C       -0.00120000       1.52220000       0.07660000
C       -0.02090000       0.02700000      -0.03390000
C       -1.27530000      -0.84280000      -0.15420000
C       -0.58520000      -1.80610000       0.84470000
N        0.61260000      -0.89710000       0.98710000
C        1.20070000      -0.75760000      -0.37580000
C        1.19560000      -1.83360000      -1.33270000
N        1.18780000      -2.69830000      -2.10170000
H        0.97710000       1.87790000       0.41170000
H       -0.22160000       1.98370000      -0.89250000
H       -0.75300000       1.86650000       0.79430000
H       -2.15910000      -0.35730000       0.26360000
H       -1.51410000      -1.22210000      -1.15060000
H       -1.08730000      -1.87840000       1.81010000
H       -0.33880000      -2.80910000       0.48820000
H        2.13960000      -0.21240000      -0.34480000
