9
Properties=species:S:1:pos:R:3 gdb_3850=T pbc="F F F"
N       -0.04640000       1.29310000      -0.05690000
C       -0.03310000       0.03770000       0.04970000
O        1.15130000      -0.67440000       0.17890000
N        1.17260000      -2.10230000      -0.03770000
N        0.09940000      -2.68820000      -0.14310000
C       -1.11740000      -1.96260000      -0.00670000
N       -1.22060000      -0.69960000       0.07930000
H        0.90360000       1.66480000      -0.08630000
H       -1.99850000      -2.59620000       0.01390000
