16
Properties=species:S:1:pos:R:3 gdb_124396=T pbc="F F F"
C        0.11110000       1.53050000       0.12190000
C       -0.04690000       0.00040000      -0.04480000
C       -1.45280000      -0.39960000      -0.11040000
C       -2.61000000      -0.71730000      -0.18260000
C        0.71800000      -0.48930000      -1.24810000
N        2.01180000      -0.31960000      -1.46480000
C        2.20060000      -0.93300000      -2.66570000
N        1.11710000      -1.46830000      -3.20420000
N        0.17650000      -1.17040000      -2.27650000
H        1.17320000       1.78050000       0.15340000
H       -0.35010000       2.05680000      -0.71750000
H       -0.36870000       1.85960000       1.04650000
H        0.40600000      -0.47730000       0.83440000
H       -3.63440000      -0.99630000      -0.22210000
H        3.16160000      -0.98670000      -3.15500000
H       -0.78270000      -1.45500000      -2.39630000
