23
Properties=species:S:1:pos:R:3 gdb_41799=T pbc="F F F"
C        0.00250000       1.64040000      -0.01830000
C        1.49290000       2.02160000      -0.24690000
C        2.25340000       0.68600000      -0.55050000
C        1.11350000      -0.29090000      -0.92300000
C       -0.04310000       0.09360000       0.01720000
C        0.08990000      -0.49680000       1.43650000
C        1.20890000       0.05900000       2.33870000
C        2.62860000      -0.09360000       1.84130000
C        3.07730000       0.18350000       0.61590000
H       -0.41080000       2.09000000       0.89000000
H       -0.60800000       2.00240000      -0.85180000
H        1.58750000       2.71060000      -1.09120000
H        1.92800000       2.52520000       0.61960000
H        2.92630000       0.82550000      -1.40070000
H        0.80740000      -0.11380000      -1.96190000
H        1.41190000      -1.34000000      -0.84020000
H       -0.99480000      -0.26890000      -0.38710000
H       -0.86090000      -0.33420000       1.96080000
H        0.21230000      -1.58390000       1.35180000
H        1.01160000       1.12270000       2.53930000
H        1.12380000      -0.43350000       3.31360000
H        3.35080000      -0.43510000       2.58000000
H        4.13840000       0.04130000       0.42140000
