17
Properties=species:S:1:pos:R:3 gdb_95199=T pbc="F F F"
O        0.01370000       1.43960000       0.05050000
C        0.01240000       0.01940000      -0.02490000
C        0.74500000      -0.57560000       1.18080000
O        0.14150000      -0.05020000       2.36320000
C       -1.19800000      -0.43180000       2.54780000
C       -2.24960000       0.57470000       2.23000000
C       -2.07160000      -0.64250000       1.31920000
C       -1.42000000      -0.54410000      -0.02110000
O       -1.93680000      -0.98170000      -1.02370000
H        0.15180000       1.66470000       0.97950000
H        0.47800000      -0.27530000      -0.97050000
H        0.71270000      -1.67360000       1.16650000
H        1.78890000      -0.25010000       1.20440000
H       -1.33680000      -1.10300000       3.39160000
H       -3.15080000       0.59700000       2.83190000
H       -1.93050000       1.53440000       1.84410000
H       -2.85170000      -1.39410000       1.36180000
