15
Properties=species:S:1:pos:R:3 gdb_128377=T pbc="F F F"
C        0.05360000       1.41060000      -0.07790000
N       -0.06990000      -0.03030000      -0.06900000
C       -1.24540000      -0.67280000       0.01750000
N       -2.35120000       0.01730000       0.09850000
O       -3.52970000      -0.76750000       0.18500000
C       -3.44550000      -2.09100000       0.17900000
N       -2.39770000      -2.82590000       0.10240000
C       -1.18350000      -2.15810000       0.01340000
N       -0.03660000      -2.71260000      -0.07030000
H        1.10970000       1.67230000      -0.15610000
H       -0.48760000       1.84790000      -0.92460000
H       -0.35700000       1.84780000       0.83930000
H        0.73210000      -0.64040000      -0.12710000
H       -4.43830000      -2.53000000       0.25180000
H       -0.14240000      -3.72840000      -0.06220000
