16
Properties=species:S:1:pos:R:3 gdb_81904=T pbc="F F F"
C        0.07990000       1.66460000       0.02310000
C        0.08130000       0.14220000       0.00580000
N        0.70710000      -0.44790000      -1.20740000
C        2.14950000      -0.29730000      -1.23580000
C        1.55270000      -1.60280000      -0.79430000
C        1.50200000      -1.77010000       0.68150000
O        1.89760000      -2.68260000       1.35690000
C        0.73570000      -0.51880000       1.21750000
O        0.64820000      -0.20030000       2.37150000
H        1.09620000       2.06800000      -0.00980000
H       -0.47510000       2.05720000      -0.83230000
H       -0.38980000       2.01430000       0.94580000
H       -0.95970000      -0.21510000       0.00770000
H        2.60180000      -0.25430000      -2.22150000
H        2.63570000       0.32510000      -0.48590000
H        1.58430000      -2.47260000      -1.44050000
