13
Properties=species:S:1:pos:R:3 gdb_9032=T pbc="F F F"
C        0.22480000       1.41540000       0.09230000
C       -0.07930000      -0.10070000      -0.02760000
C       -1.53150000      -0.34670000      -0.00390000
N       -2.67250000      -0.52040000       0.03210000
C        0.53610000      -0.68440000      -1.21860000
C        1.08350000      -1.13910000      -2.19230000
C        1.70310000      -1.70060000      -3.37030000
O        2.88130000      -1.61190000      -3.62260000
H        1.30550000       1.56620000       0.12080000
H       -0.18610000       1.95490000      -0.76280000
H       -0.22020000       1.81030000       1.00800000
H        0.34410000      -0.60530000       0.85190000
H        0.99980000      -2.23160000      -4.04170000
