18
Properties=species:S:1:pos:R:3 gdb_26713=T pbc="F F F"
C       -0.03390000       1.51470000       0.09990000
C        0.00440000       0.02800000      -0.03540000
C       -0.00770000      -0.80090000      -1.13440000
C       -0.06670000      -0.38810000      -2.57560000
C        0.04720000      -2.15440000      -0.64150000
C        0.05760000      -3.38990000      -1.40960000
O        0.10520000      -4.50770000      -0.93400000
C        0.09050000      -2.09010000       0.74080000
N        0.06430000      -0.78080000       1.09090000
H        0.85630000       1.90460000       0.60940000
H       -0.07920000       1.98720000      -0.88300000
H       -0.91020000       1.85400000       0.66640000
H        0.80660000      -0.74060000      -3.13620000
H       -0.95300000      -0.79120000      -3.07860000
H       -0.10140000       0.69960000      -2.67930000
H        0.01750000      -3.25130000      -2.51360000
H        0.13700000      -2.88420000       1.46760000
H        0.08570000      -0.43670000       2.03630000
