19
Properties=species:S:1:pos:R:3 gdb_40152=T pbc="F F F"
C        0.09290000       1.45300000      -0.16030000
O        1.21510000       0.56210000      -0.22260000
C       -0.06380000       0.00150000      -0.03420000
C       -0.54440000      -0.80460000       1.17440000
C       -1.56450000      -1.49240000       0.21520000
C       -0.75450000      -0.97300000      -1.00120000
C       -1.31010000      -0.61350000      -2.38900000
C       -0.26380000      -1.61370000      -2.91410000
O        0.13860000      -1.95660000      -1.57160000
H        0.03670000       2.07550000       0.73230000
H       -0.15430000       1.95730000      -1.09370000
H        0.22430000      -1.49910000       1.52270000
H       -0.94020000      -0.24800000       2.02640000
H       -1.64360000      -2.57900000       0.27130000
H       -2.56190000      -1.04700000       0.26640000
H       -2.35070000      -0.90580000      -2.54400000
H       -1.18060000       0.42560000      -2.69750000
H       -0.65140000      -2.48290000      -3.45770000
H        0.56140000      -1.17240000      -3.48530000
