13
Properties=species:S:1:pos:R:3 gdb_4391=T pbc="F F F"
C        0.06570000       1.48530000       0.03540000
C       -0.06040000       0.00070000      -0.00700000
C       -1.19460000      -0.70790000      -0.21280000
N       -1.20490000      -2.08380000      -0.23340000
C       -0.08540000      -2.69950000      -0.04900000
C        1.19930000      -2.03340000       0.18120000
O        2.26610000      -2.55120000       0.35690000
O        1.11590000      -0.63810000       0.18710000
H        0.76310000       1.83200000      -0.73450000
H       -0.90460000       1.95820000      -0.12510000
H        0.46410000       1.80790000       1.00320000
H       -2.14060000      -0.20590000      -0.36940000
H       -0.06010000      -3.78590000      -0.05980000
