23
Properties=species:S:1:pos:R:3 gdb_93860=T pbc="F F F"
C       -0.70090000       1.30720000       0.01830000
C        0.13600000       0.03420000      -0.05580000
C        1.31310000       0.11620000      -1.03920000
O        2.26040000      -0.86590000      -0.63400000
C        1.93620000      -1.36270000       0.67350000
C        3.22040000      -1.50640000       1.47510000
C        0.86320000      -0.41720000       1.21170000
C        1.10780000       0.50700000       2.37920000
C        0.16660000      -0.66850000       2.51440000
H       -0.08490000       2.17920000       0.25980000
H       -1.18810000       1.50270000      -0.94260000
H       -1.49100000       1.22920000       0.77280000
H       -0.51510000      -0.79340000      -0.37170000
H        1.01600000      -0.08010000      -2.07620000
H        1.77340000       1.11660000      -1.00370000
H        1.48390000      -2.36250000       0.55500000
H        3.72510000      -0.54200000       1.57890000
H        3.02130000      -1.91420000       2.47220000
H        3.89950000      -2.19200000       0.96100000
H        2.06140000       0.45630000       2.89150000
H        0.67490000       1.50050000       2.35270000
H       -0.89850000      -0.46710000       2.57670000
H        0.48990000      -1.51500000       3.11300000
