23
Properties=species:S:1:pos:R:3 gdb_109389=T pbc="F F F"
C        0.25040000       1.61310000      -0.09310000
C       -0.11970000       0.12930000       0.08440000
C        0.61630000      -0.54190000       1.22100000
C       -0.02300000      -0.94350000       2.32320000
C        0.59320000      -1.58970000       3.54280000
C        1.50500000      -2.79610000       3.26390000
C        2.79840000      -2.45230000       2.52470000
O        2.60950000      -2.02680000       1.18980000
C        2.11940000      -0.70590000       1.03950000
H        1.31910000       1.74480000      -0.29330000
H       -0.29770000       2.05340000      -0.93210000
H        0.00830000       2.18330000       0.80940000
H       -1.19920000       0.04620000       0.25060000
H        0.09630000      -0.40340000      -0.85260000
H       -1.09970000      -0.78680000       2.36660000
H        1.16930000      -0.83870000       4.10630000
H       -0.21050000      -1.90650000       4.21550000
H        1.78050000      -3.26260000       4.21890000
H        0.95740000      -3.54690000       2.68310000
H        3.35740000      -1.68450000       3.08910000
H        3.43530000      -3.34130000       2.46200000
H        2.39660000      -0.41150000       0.02210000
H        2.65800000      -0.03030000       1.72770000
