19
Properties=species:S:1:pos:R:3 gdb_72362=T pbc="F F F"
C        0.23590000       1.52790000      -0.09950000
C       -0.04470000       0.04030000       0.08950000
C       -1.54470000      -0.34160000       0.10180000
C       -1.63060000      -1.39010000       1.18620000
C       -0.48220000      -1.56080000       1.84240000
C        0.62600000      -0.69140000       1.31530000
C        1.63660000      -1.41420000       0.36340000
C        0.82450000      -0.86090000      -0.81880000
O        0.82450000      -1.06710000      -1.99820000
H        1.30810000       1.74790000      -0.05740000
H       -0.13540000       1.86860000      -1.07140000
H       -0.25970000       2.11480000       0.68130000
H       -2.18040000       0.52580000       0.32880000
H       -1.87200000      -0.71500000      -0.87610000
H       -2.55070000      -1.92490000       1.39710000
H       -0.33150000      -2.25940000       2.65890000
H        1.09300000      -0.06250000       2.07850000
H        2.65100000      -1.00120000       0.38960000
H        1.70170000      -2.50350000       0.42780000
