20
Properties=species:S:1:pos:R:3 gdb_58658=T pbc="F F F"
C        0.02780000       1.45790000      -0.36360000
C        0.04860000       0.02370000       0.18570000
N        0.59220000      -0.12360000       1.54110000
C       -1.34930000      -0.59350000       0.15770000
N       -1.83200000      -1.08260000      -1.15170000
C       -1.60590000      -2.05470000      -0.07460000
C       -0.50870000      -3.07510000      -0.24700000
C       -2.30930000       0.07940000       1.00910000
N       -3.06100000       0.63960000       1.68830000
H        1.04150000       1.87050000      -0.38190000
H       -0.36890000       1.48080000      -1.38370000
H       -0.59210000       2.10840000       0.26310000
H        0.66510000      -0.58790000      -0.47860000
H        1.54770000       0.22150000       1.55900000
H        0.07120000       0.46880000       2.18480000
H       -2.82190000      -0.88290000      -1.27080000
H       -2.49420000      -2.43410000       0.42780000
H        0.30330000      -2.69110000      -0.86650000
H       -0.10210000      -3.36660000       0.72560000
H       -0.90750000      -3.96900000      -0.73750000
