18
Properties=species:S:1:pos:R:3 gdb_18699=T pbc="F F F"
C       -0.11430000       1.51210000       0.08720000
C        0.00230000       0.01600000      -0.00050000
C       -0.02020000      -0.66530000      -1.14950000
C        0.10880000      -2.16650000      -1.23710000
C        0.91870000      -2.77000000      -0.07270000
C        0.58320000      -2.12620000       1.26600000
O        1.46570000      -1.08750000       1.71140000
C        0.13420000      -0.72870000       1.28590000
H        0.77420000       1.94640000       0.56230000
H       -0.22920000       1.96480000      -0.90130000
H       -0.97420000       1.81020000       0.70080000
H       -0.14630000      -0.12510000      -2.08580000
H       -0.89610000      -2.61400000      -1.26810000
H        0.57750000      -2.44220000      -2.18820000
H        0.75470000      -3.85120000      -0.02210000
H        1.98740000      -2.61370000      -0.25230000
H        0.25340000      -2.78960000       2.06500000
H       -0.50090000      -0.38420000       2.10370000
