18
Properties=species:S:1:pos:R:3 gdb_89205=T pbc="F F F"
C       -0.05220000       1.52200000      -0.05170000
C        0.09700000       0.02320000       0.08650000
O        1.10900000      -0.53610000      -0.79480000
C        1.75110000      -1.25160000       0.29250000
C        1.99770000      -2.70510000       0.02000000
C        0.79240000      -0.58740000       1.32910000
N        1.94720000       0.14020000       1.84510000
C        2.85920000      -0.34950000       0.92090000
O        4.01360000      -0.10630000       0.70750000
H        0.88170000       2.03490000       0.19340000
H       -0.31790000       1.77640000      -1.08200000
H       -0.84640000       1.89200000       0.60600000
H       -0.86140000      -0.48140000      -0.09950000
H        2.73500000      -2.80270000      -0.78330000
H        2.39650000      -3.20440000       0.90810000
H        1.07780000      -3.20730000      -0.29230000
H        0.19460000      -1.11540000       2.07130000
H        1.98930000       0.98840000       2.39370000
