17
Properties=species:S:1:pos:R:3 gdb_52906=T pbc="F F F"
C       -0.14230000       1.55870000       0.20390000
C       -0.05980000       0.10690000       0.17430000
C       -0.00370000      -1.09610000       0.14900000
C        0.12710000      -2.53200000       0.08930000
C        1.44760000      -3.04780000      -0.46160000
C        1.66740000      -2.62280000      -1.90410000
O        2.72790000      -2.27160000      -2.35020000
C       -0.67990000      -3.38480000       0.98630000
O       -1.03290000      -3.25220000      -0.38600000
H        0.74960000       2.01270000      -0.24080000
H       -1.01290000       1.91290000      -0.35860000
H       -0.23310000       1.93150000       1.22990000
H        2.29430000      -2.70750000       0.14060000
H        1.42450000      -4.14520000      -0.44310000
H        0.75870000      -2.68230000      -2.54230000
H       -0.28950000      -4.35750000       1.28430000
H       -1.35960000      -2.91310000       1.69290000
