17
Properties=species:S:1:pos:R:3 gdb_124548=T pbc="F F F"
C        0.04150000       1.59080000       0.02500000
C       -0.02480000       0.05950000      -0.01860000
C        0.73380000      -0.57730000       1.16370000
C       -1.44320000      -0.42710000      -0.05830000
N       -2.48430000       0.32480000       0.08890000
O       -3.60160000      -0.54600000      -0.00830000
C       -3.18340000      -1.83240000      -0.22070000
O       -3.89060000      -2.78990000      -0.34860000
N       -1.79880000      -1.73950000      -0.24760000
H        1.08590000       1.91420000       0.01040000
H       -0.47500000       2.03600000      -0.82800000
H       -0.42730000       1.97510000       0.93470000
H        0.45030000      -0.28530000      -0.94840000
H        0.29810000      -0.25990000       2.11600000
H        0.71130000      -1.67100000       1.13020000
H        1.78140000      -0.26430000       1.14550000
H       -1.19600000      -2.52920000      -0.39870000
