15
Properties=species:S:1:pos:R:3 gdb_124718=T pbc="F F F"
C       -0.72060000       1.34710000       0.25550000
C        0.04920000       0.07350000      -0.00670000
N        0.43360000      -0.60630000       1.10800000
N        0.39990000      -0.42680000      -1.14440000
C        0.17450000       0.19700000      -2.33680000
N        0.32130000      -0.46800000      -3.49190000
N        0.04850000       0.48430000      -4.37170000
N       -0.24190000       1.66660000      -3.85520000
N       -0.16770000       1.50910000      -2.56030000
H       -0.09300000       2.21450000       0.03790000
H       -1.57950000       1.41810000      -0.41320000
H       -1.05840000       1.40210000       1.29390000
H        0.02080000      -0.40500000       2.00060000
H        0.86600000      -1.50630000       0.97320000
H        0.06940000       0.32640000      -5.36740000
