15
Properties=species:S:1:pos:R:3 gdb_17988=T pbc="F F F"
N       -0.37880000      -1.12430000      -0.56030000
C       -0.23640000      -0.00690000      -0.29780000
C       -0.02950000       1.39010000       0.04500000
C       -0.06890000       1.79020000       1.56650000
C        1.35830000       2.37260000       1.43610000
O        2.37880000       1.42800000       1.79670000
C        2.54080000       1.00260000       0.41970000
C        1.42830000       1.94990000      -0.05840000
H       -0.72290000       1.99770000      -0.54170000
H       -0.85100000       2.51850000       1.78960000
H       -0.13070000       0.95840000       2.26880000
H        1.55170000       3.37460000       1.82590000
H        3.53770000       1.25760000       0.04160000
H        2.36630000      -0.07090000       0.28570000
H        1.63920000       2.61010000      -0.89710000
