20
Properties=species:S:1:pos:R:3 gdb_17785=T pbc="F F F"
C       -0.05650000       1.49020000      -0.02310000
C       -0.13350000      -0.00070000       0.25800000
O       -1.31190000      -0.51090000      -0.34040000
C       -1.45480000      -1.89400000      -0.20780000
C       -2.03750000      -2.50320000       1.11350000
C       -3.40000000      -1.85950000       0.71560000
C       -2.83340000      -2.47390000      -0.60150000
C       -2.44100000      -3.72310000       0.23930000
H        0.84610000       1.91720000       0.42410000
H       -0.03320000       1.67610000      -1.10070000
H       -0.92720000       2.00470000       0.39360000
H        0.75050000      -0.51790000      -0.15170000
H       -0.14330000      -0.19010000       1.34320000
H       -0.57510000      -2.41610000      -0.61510000
H       -1.57590000      -2.52800000       2.10170000
H       -4.29490000      -2.33650000       1.12410000
H       -3.45990000      -0.77250000       0.75730000
H       -3.28770000      -2.45810000      -1.59280000
H       -1.63250000      -4.35060000      -0.14810000
H       -3.27070000      -4.32570000       0.61450000
