18
Properties=species:S:1:pos:R:3 gdb_104839=T pbc="F F F"
O        0.23090000       1.38080000       0.09840000
C        0.10900000      -0.00750000      -0.06350000
C       -1.34330000      -0.51970000      -0.04350000
C       -2.19470000       0.09490000      -1.16380000
O       -2.35770000       1.49100000      -0.94880000
C       -1.46190000      -2.04260000       0.20890000
O       -2.06700000      -1.78310000       1.52060000
C       -2.06210000      -0.42970000       1.28570000
N       -2.58830000       0.52810000       1.90680000
H       -0.49200000       1.79280000      -0.39780000
H        0.56110000      -0.35500000      -1.01160000
H        0.67260000      -0.47820000       0.75120000
H       -1.70060000      -0.01870000      -2.13510000
H       -3.16990000      -0.41160000      -1.22070000
H       -2.71920000       1.59450000      -0.05200000
H       -2.15960000      -2.58780000      -0.43200000
H       -0.52350000      -2.59230000       0.31010000
H       -3.07730000       0.22750000       2.75090000
