17
Properties=species:S:1:pos:R:3 gdb_34617=T pbc="F F F"
C        0.05970000      -1.21180000       0.13580000
C       -0.00530000      -0.01120000       0.06330000
C       -0.04530000       1.41600000      -0.00960000
C       -1.23970000       2.05860000      -0.06030000
C       -1.34380000       3.55610000       0.01210000
C       -0.73800000       4.12770000      -1.24630000
C        0.57890000       4.02220000      -1.50210000
C        1.51520000       3.24690000      -0.72120000
C        1.24320000       2.09780000      -0.05100000
H        0.10530000      -2.27080000       0.19570000
H       -2.14880000       1.47160000      -0.14420000
H       -2.38440000       3.86690000       0.12480000
H       -0.78570000       3.92330000       0.88510000
H       -1.38730000       4.64410000      -1.94760000
H        0.98790000       4.54070000      -2.36650000
H        2.55800000       3.55260000      -0.77090000
H        2.07620000       1.55450000       0.38610000
