15
Properties=species:S:1:pos:R:3 gdb_123940=T pbc="F F F"
C       -0.02690000       1.42980000       0.07190000
C        1.42660000       1.94240000       0.02590000
O        2.20390000       1.46360000       1.12840000
C        1.98220000       0.14160000       1.32130000
C        0.93700000      -0.56860000       0.77690000
N        1.11900000      -1.81530000       1.27850000
N        2.22350000      -1.86790000       2.06140000
N        2.73990000      -0.66430000       2.09360000
N       -0.12050000      -0.04230000       0.03040000
H       -0.49600000       1.77610000       0.99920000
H       -0.59060000       1.84610000      -0.76640000
H        1.90030000       1.62840000      -0.91540000
H        1.45330000       3.03260000       0.08690000
H        0.57310000      -2.64900000       1.13400000
H       -0.15210000      -0.39330000      -0.92110000
