15
Properties=species:S:1:pos:R:3 gdb_42464=T pbc="F F F"
O        0.00730000      -0.13940000      -0.00190000
C       -0.00240000       1.06330000       0.00370000
C        1.27020000       1.89690000      -0.00220000
C        2.52730000       1.01300000      -0.01670000
C        3.74960000       1.81190000      -0.02210000
N        4.70480000       2.46170000      -0.02620000
C       -1.30820000       1.87910000       0.01770000
C       -2.50970000       1.05470000       0.02230000
N       -3.47340000       0.41970000       0.02600000
H        1.25460000       2.56510000      -0.87210000
H        1.26850000       2.55620000       0.87460000
H        2.53030000       0.35090000       0.85440000
H        2.51660000       0.36000000      -0.89450000
H       -1.30700000       2.53630000       0.89640000
H       -1.32010000       2.54570000      -0.85370000
