17
Properties=species:S:1:pos:R:3 gdb_50735=T pbc="F F F"
O       -0.67330000       0.96880000      -0.76960000
C        0.00930000       1.16790000       0.20050000
C        1.33240000       1.93340000       0.14570000
C        1.59460000       2.57800000      -1.21860000
C        2.66480000       3.65800000      -1.08260000
C        2.20630000       4.67840000      -0.05510000
O        1.91440000       4.09700000       1.23170000
C        1.42360000       2.85140000       1.37340000
O        1.10350000       2.46230000       2.46570000
H       -0.26600000       0.80680000       1.20930000
H        2.10080000       1.17220000       0.35570000
H        1.88020000       1.81000000      -1.94190000
H        0.66370000       3.01760000      -1.59320000
H        3.62260000       3.22290000      -0.77170000
H        2.83460000       4.16970000      -2.03570000
H        2.96940000       5.43320000       0.14760000
H        1.30230000       5.19400000      -0.40350000
