19
Properties=species:S:1:pos:R:3 gdb_72118=T pbc="F F F"
C       -0.08040000       1.47650000       0.02720000
C        0.08800000      -0.02230000       0.01480000
O       -1.24550000      -0.68410000       0.04900000
C       -0.96550000      -1.78140000       0.89570000
C       -0.44880000      -1.09240000       2.17480000
C        0.72990000      -0.74650000       1.23850000
C        0.58110000      -2.14620000       0.56330000
C        0.99390000      -1.95560000      -0.85440000
C        0.76080000      -0.67600000      -1.17620000
H        0.89320000       1.97030000      -0.05420000
H       -0.69890000       1.79800000      -0.81650000
H       -0.56600000       1.80950000       0.94870000
H       -1.76830000      -2.51620000       0.86120000
H       -1.06610000      -0.28620000       2.57730000
H       -0.15190000      -1.78970000       2.96190000
H        1.69750000      -0.37560000       1.57700000
H        0.95220000      -3.00690000       1.11750000
H        1.33220000      -2.74230000      -1.51760000
H        0.85770000      -0.20880000      -2.14850000
