15
Properties=species:S:1:pos:R:3 gdb_86475=T pbc="F F F"
C        0.48420000       1.57810000       0.01920000
C       -0.01290000       0.15430000      -0.06850000
C        0.45390000      -0.71940000      -1.25400000
C        1.05140000      -1.64860000      -0.14990000
O        0.67020000      -0.72950000       0.88160000
C        0.37030000      -2.94800000      -0.01460000
N       -0.20150000      -3.94730000       0.07500000
C        2.50820000      -1.84420000      -0.20980000
N        3.65490000      -1.95850000      -0.28240000
H        1.56260000       1.62900000      -0.15710000
H       -0.02500000       2.20010000      -0.72480000
H        0.27490000       1.99190000       1.01000000
H       -1.09360000       0.10320000       0.10400000
H       -0.31970000      -1.17860000      -1.86680000
H        1.21670000      -0.26470000      -1.88550000
