14
Properties=species:S:1:pos:R:3 gdb_655=T pbc="F F F"
C       -0.00100000       1.41100000       0.01670000
C        1.44140000       1.92410000       0.01580000
C        2.23060000       1.21870000      -1.05630000
C        1.78170000       0.10130000      -1.62290000
C        0.49410000      -0.54860000      -1.19460000
O       -0.04100000      -0.00640000      -0.00300000
H       -0.53710000       1.71830000       0.91900000
H       -0.53920000       1.82040000      -0.85460000
H        1.44710000       3.00870000      -0.15280000
H        1.90210000       1.76300000       1.00000000
H        3.17770000       1.65330000      -1.36460000
H        2.33070000      -0.38960000      -2.42230000
H       -0.24610000      -0.48820000      -2.01520000
H        0.65330000      -1.61560000      -0.99610000
