17
Properties=species:S:1:pos:R:3 gdb_30403=T pbc="F F F"
C       -0.05790000       1.38700000       0.08700000
N       -0.02230000      -0.06090000       0.04440000
C        0.55420000      -0.61790000      -0.96510000
C        1.19480000       0.03280000      -2.10360000
C        1.77120000      -0.66680000      -3.11100000
N        1.78120000      -2.02840000      -3.11010000
C        1.19580000      -2.72950000      -2.06850000
C        0.60360000      -2.08650000      -1.03230000
O        0.02140000      -2.74020000       0.00370000
H        0.94700000       1.84080000       0.10550000
H       -0.59240000       1.82910000      -0.77030000
H       -0.57700000       1.70750000       0.99510000
H        1.21360000       1.11270000      -2.15080000
H        2.24900000      -0.19300000      -3.96020000
H        2.21120000      -2.53320000      -3.86420000
H        1.24390000      -3.80970000      -2.13860000
H        0.10580000      -3.69040000      -0.13240000
