19
Properties=species:S:1:pos:R:3 gdb_56028=T pbc="F F F"
C        0.44020000       1.33390000      -0.24430000
C       -0.06700000      -0.06250000       0.02460000
O       -0.65570000      -0.41170000       1.01380000
O        0.22820000      -0.87830000      -1.02060000
C       -0.10320000      -2.27930000      -0.87470000
C       -0.33070000      -2.84770000      -2.29090000
C        0.83680000      -3.84190000      -2.48320000
C        1.81450000      -3.41390000      -1.38340000
O        0.97340000      -2.96890000      -0.31620000
H        1.53360000       1.32540000      -0.28490000
H        0.08160000       1.68850000      -1.21420000
H        0.10730000       2.00110000       0.54980000
H       -0.94290000      -2.35160000      -0.18540000
H       -1.30630000      -3.33130000      -2.36840000
H       -0.30070000      -2.03200000      -3.01570000
H        0.50320000      -4.86830000      -2.30710000
H        1.27620000      -3.79540000      -3.48210000
H        2.43830000      -4.22190000      -0.99560000
H        2.46680000      -2.59630000      -1.72200000
