19
Properties=species:S:1:pos:R:3 gdb_51025=T pbc="F F F"
O       -0.55190000       1.40630000       1.01930000
C        0.09890000       1.21780000       0.02220000
C        1.40070000       1.92590000      -0.28570000
C        1.26230000       2.90500000      -1.47960000
C        0.40790000       4.17140000      -1.10610000
C        1.71860000       4.95340000      -0.83120000
C        2.50970000       3.85440000      -1.58730000
C        0.88890000       2.20440000      -2.69730000
C        0.59010000       1.63860000      -3.71650000
H       -0.24200000       0.50630000      -0.76060000
H        1.71430000       2.47110000       0.60890000
H        2.16300000       1.17670000      -0.53430000
H       -0.13280000       4.55200000      -1.97450000
H       -0.29280000       4.04390000      -0.27810000
H        1.77950000       5.96500000      -1.23600000
H        1.96760000       4.99600000       0.23190000
H        3.43270000       3.48300000      -1.13520000
H        2.70830000       4.12170000      -2.62710000
H        0.32100000       1.14110000      -4.61530000
