15
Properties=species:S:1:pos:R:3 gdb_49463=T pbc="F F F"
O       -0.06310000       0.05660000      -0.49760000
C       -0.02130000       1.17330000      -0.03570000
C        1.21730000       1.97580000       0.02690000
C        1.24770000       3.51030000      -0.15860000
N        0.06020000       4.27840000       0.02620000
C       -0.47010000       4.11020000       1.30510000
O       -1.55280000       4.47010000       1.69850000
N        0.50660000       3.42980000       2.03130000
C        1.54800000       2.94090000       1.18840000
H       -0.93660000       1.65220000       0.37050000
H        2.08490000       1.46750000      -0.38150000
H        2.01160000       3.92390000      -0.80630000
H       -0.57240000       4.50800000      -0.72260000
H        0.23490000       2.98430000       2.89210000
H        2.54830000       2.90580000       1.60320000
