22
Properties=species:S:1:pos:R:3 gdb_111457=T pbc="F F F"
C        0.91140000      -0.35180000       1.28740000
C        0.09730000       0.04490000       0.05210000
C        0.75750000      -0.37920000      -1.27270000
C        0.85400000      -1.89590000      -1.46100000
N       -0.45750000      -2.58420000      -1.47100000
C        0.22260000      -2.24390000      -2.75870000
C       -0.25880000      -0.96020000      -3.34000000
C       -0.00110000       0.06890000      -2.52450000
C       -0.38980000       1.49760000      -2.73940000
H        1.02220000      -1.43870000       1.35980000
H        1.91680000       0.08460000       1.26010000
H        0.42570000      -0.00850000       2.20620000
H       -0.89700000      -0.41150000       0.09810000
H       -0.04750000       1.13180000       0.05060000
H        1.77260000       0.04930000      -1.29670000
H        1.71660000      -2.43260000      -1.08140000
H       -0.29470000      -3.57020000      -1.27050000
H        0.57390000      -3.05600000      -3.38650000
H       -0.78240000      -0.89070000      -4.28690000
H       -0.83930000       1.64330000      -3.72550000
H       -1.11380000       1.83680000      -1.98840000
H        0.47930000       2.16350000      -2.65680000
