16
Properties=species:S:1:pos:R:3 gdb_70271=T pbc="F F F"
O       -0.00880000       1.41210000      -0.19810000
C        0.02210000       0.03000000      -0.05380000
C       -0.30680000      -0.86490000      -1.23240000
C       -1.25480000      -0.74470000      -0.05920000
O       -1.18160000      -1.78450000       0.89000000
C       -0.14860000      -1.47170000       1.82520000
C        0.87200000      -0.57540000       1.07140000
C       -0.71030000      -0.78930000       3.00970000
N       -1.14640000      -0.26170000       3.94070000
H        0.73050000       1.67540000      -0.75700000
H       -0.60490000      -0.36410000      -2.14760000
H        0.22990000      -1.79980000      -1.35570000
H       -2.22760000      -0.27830000      -0.16350000
H        0.28580000      -2.41830000       2.15860000
H        1.70430000      -1.17990000       0.70040000
H        1.26880000       0.21790000       1.70640000
