15
Properties=species:S:1:pos:R:3 gdb_21036=T pbc="F F F"
C        0.10330000       1.40490000      -0.04210000
N        0.08920000      -0.03490000      -0.00410000
N        0.12280000      -0.79630000      -1.15640000
C        0.09760000      -2.00910000      -0.73940000
C        0.11500000      -3.24880000      -1.54880000
O        0.04900000      -2.11990000       0.62540000
C        0.04320000      -0.81860000       1.12020000
N        0.00430000      -0.44480000       2.32940000
H        1.01530000       1.77310000      -0.52280000
H       -0.76580000       1.78870000      -0.58580000
H        0.06980000       1.75080000       0.99170000
H        0.98460000      -3.86510000      -1.29780000
H       -0.78090000      -3.84940000      -1.35990000
H        0.15450000      -2.98500000      -2.60610000
H       -0.02480000      -1.23780000       2.96250000
