16
Properties=species:S:1:pos:R:3 gdb_105303=T pbc="F F F"
O       -0.06090000       1.19840000       0.57810000
C       -0.12630000      -0.15470000       0.17800000
C       -1.55470000      -0.60530000      -0.07040000
C       -1.95790000      -2.03860000       0.21530000
N       -2.43190000      -0.97110000       1.04430000
C       -2.09740000      -0.80710000       2.38990000
O       -2.04660000      -1.70940000       3.18490000
C       -2.28330000       0.13140000      -1.15160000
O       -1.78540000       1.02310000      -1.79610000
H       -0.33630000       1.71990000      -0.18610000
H        0.46190000      -0.34030000      -0.73220000
H        0.31220000      -0.74900000       0.98620000
H       -2.69650000      -2.53030000      -0.41260000
H       -1.18520000      -2.68680000       0.62240000
H       -1.94780000       0.25610000       2.64310000
H       -3.33530000      -0.18900000      -1.30500000
