16
Properties=species:S:1:pos:R:3 gdb_129470=T pbc="F F F"
N        0.48380000       0.13760000      -0.76010000
C       -0.26770000       0.22820000       0.36870000
O       -0.15180000       1.11930000       1.18740000
C       -1.35560000      -0.85530000       0.50910000
C       -0.94710000      -2.25810000       0.16630000
N       -0.56940000      -2.58490000      -1.07250000
N       -0.26390000      -3.89540000      -1.00530000
C       -0.44600000      -4.41620000       0.22950000
C       -0.88770000      -3.38020000       1.02440000
H        1.23300000       0.79860000      -0.88080000
H        0.43030000      -0.68290000      -1.34590000
H       -1.70480000      -0.80420000       1.54060000
H       -2.18980000      -0.54780000      -0.13380000
H        0.03910000      -4.37010000      -1.83850000
H       -0.25500000      -5.45660000       0.43960000
H       -1.13300000      -3.42090000       2.07310000
