17
Properties=species:S:1:pos:R:3 gdb_88814=T pbc="F F F"
O       -0.68310000       0.78500000       1.66690000
C       -0.14120000       0.05510000       0.61760000
C       -0.65500000      -1.29500000       0.19310000
C       -0.83350000      -0.08690000      -0.72160000
C       -2.18960000       0.54120000      -0.94060000
C       -3.17310000      -0.06460000      -1.96810000
O       -4.17340000      -0.25150000      -0.90670000
C       -3.31280000       0.20010000       0.04210000
O       -3.48180000       0.22920000       1.22630000
H       -1.62360000       0.57130000       1.77260000
H        0.93330000       0.20640000       0.58640000
H        0.05110000      -2.06500000      -0.09830000
H       -1.53270000      -1.67230000       0.70830000
H       -0.19630000      -0.04210000      -1.60150000
H       -2.09920000       1.62740000      -1.05100000
H       -3.55620000       0.60020000      -2.74340000
H       -2.88270000      -1.03080000      -2.38410000
