12
Properties=species:S:1:pos:R:3 gdb_123292=T pbc="F F F"
C        0.13320000      -1.18600000      -0.00540000
C        0.03930000       0.01360000       0.00290000
C       -0.08060000       1.41220000       0.01230000
C       -1.17860000       2.24610000       0.03230000
C       -0.58820000       3.54590000       0.03120000
N        0.71710000       3.49940000       0.01240000
O        1.04910000       2.15320000       0.00040000
C       -2.54470000       1.90530000       0.04980000
C       -3.71790000       1.63690000       0.06490000
H        0.21530000      -2.24540000      -0.01320000
H       -1.09240000       4.50130000       0.04350000
H       -4.75110000       1.39140000       0.07840000
