16
Properties=species:S:1:pos:R:3 gdb_23616=T pbc="F F F"
O       -0.13710000       1.33480000      -0.11060000
N        0.01050000      -0.06960000      -0.07760000
C       -1.11520000      -0.64740000       0.04640000
C       -2.49850000      -0.12500000       0.15780000
C       -3.45180000      -1.13650000      -0.47570000
C       -3.31240000      -1.08660000       1.02160000
C       -2.50930000      -2.41880000       0.99260000
C       -2.64900000      -2.46870000      -0.50750000
C       -1.30050000      -2.11610000       0.11260000
H        0.77510000       1.62770000      -0.20530000
H       -2.72250000       0.93080000       0.14350000
H       -4.28220000      -0.85850000      -1.10930000
H       -4.01340000      -0.76230000       1.77770000
H       -2.53940000      -3.21480000       1.72310000
H       -2.80820000      -3.31100000      -1.16580000
H       -0.46860000      -2.80420000       0.05810000
