21
Properties=species:S:1:pos:R:3 gdb_80791=T pbc="F F F"
C       -0.11510000       1.64360000       0.17340000
C        0.01270000       0.12910000       0.11150000
C        1.14270000      -0.58570000      -0.69850000
C        2.14290000      -0.16520000       0.41600000
C        0.86730000      -0.66750000       1.17110000
C        0.65120000      -0.73160000       2.58740000
C        0.45460000      -0.78750000       3.77380000
C        0.87840000      -1.87210000       0.15230000
C       -0.32770000      -2.77580000      -0.04690000
H        0.83690000       2.16590000       0.29080000
H       -0.58610000       2.01790000      -0.74240000
H       -0.75700000       1.93260000       1.01280000
H       -0.98100000      -0.29700000      -0.04100000
H        1.30770000      -0.53830000      -1.77560000
H        3.03490000      -0.78620000       0.53050000
H        2.38910000       0.89160000       0.51020000
H        0.28500000      -0.83640000       4.82070000
H        1.77580000      -2.49010000       0.26890000
H       -1.26780000      -2.24030000      -0.19650000
H       -0.17240000      -3.42020000      -0.91920000
H       -0.45440000      -3.42770000       0.82410000
