17
Properties=species:S:1:pos:R:3 gdb_38334=T pbc="F F F"
C       -0.00950000       1.63990000       0.08020000
C        1.47190000       1.19330000      -0.00220000
N        1.14680000       0.20820000       1.10750000
C        0.01560000       0.09080000       0.10050000
C        1.05020000       0.13300000      -1.06990000
C        0.65900000       0.51480000      -2.51880000
O        1.34260000      -0.46450000      -3.33860000
C        2.00320000      -1.25550000      -2.46340000
N        1.91980000      -1.02950000      -1.21930000
H       -0.29210000       2.10120000       1.02590000
H       -0.44890000       2.13960000      -0.78510000
H        2.37420000       1.80780000       0.01210000
H        1.75630000      -0.60710000       0.99730000
H       -0.81390000      -0.60590000       0.23690000
H       -0.41350000       0.43500000      -2.71830000
H        1.00440000       1.50840000      -2.81820000
H        2.57480000      -2.05350000      -2.92410000
