16
Properties=species:S:1:pos:R:3 gdb_32271=T pbc="F F F"
N        0.10370000       1.38790000      -0.06990000
C        0.07160000       0.00470000      -0.06180000
C       -1.12200000      -0.72760000      -0.04580000
N       -1.15970000      -2.05560000       0.01680000
C        0.01810000      -2.67870000       0.05760000
N        1.21700000      -2.09580000       0.04390000
C        1.25310000      -0.76380000      -0.00570000
C        2.61080000      -0.10090000       0.01610000
O        2.77730000       0.87110000      -1.02230000
H        0.92560000       1.77830000      -0.51360000
H       -0.75700000       1.84070000      -0.34000000
H       -2.07920000      -0.20740000      -0.08110000
H        0.00050000      -3.76380000       0.10300000
H        2.73960000       0.46030000       0.94910000
H        3.37980000      -0.87980000      -0.02690000
H        2.73240000       0.40540000      -1.86460000
