16
Properties=species:S:1:pos:R:3 gdb_44614=T pbc="F F F"
O        0.14130000       0.36670000       0.77180000
C        0.08510000       1.36700000       0.12540000
O       -1.05500000       2.11910000       0.00590000
C       -0.73980000       3.28380000      -0.72920000
C        0.37730000       4.21050000      -0.26190000
C        1.22990000       3.86430000       0.96370000
C        2.04380000       2.62650000       0.48610000
N        1.17300000       2.00740000      -0.55410000
C        0.62010000       3.13120000      -1.30640000
H       -1.59430000       3.67840000      -1.26240000
H        0.27000000       5.24680000      -0.56140000
H        1.87050000       4.70420000       1.24430000
H        0.61530000       3.61470000       1.83480000
H        2.98120000       2.93030000       0.01350000
H        2.25890000       1.89530000       1.26660000
H        0.91830000       3.26890000      -2.33770000
