23
Properties=species:S:1:pos:R:3 gdb_102400=T pbc="F F F"
C        0.07970000       1.47060000       0.41810000
C       -0.15460000      -0.04280000       0.42480000
C       -1.57430000      -0.48110000       0.01040000
C       -2.65000000       0.09910000       0.95920000
C       -4.08760000      -0.34060000       0.65640000
O       -1.94900000      -0.04190000      -1.29510000
C       -1.08690000      -0.40720000      -2.35550000
C       -1.68300000      -2.01160000       0.06340000
O       -1.11650000      -2.71350000       0.86060000
H        1.13860000       1.69120000       0.58280000
H       -0.21430000       1.91470000      -0.53770000
H       -0.48460000       1.97750000       1.20580000
H        0.56930000      -0.52860000      -0.23910000
H        0.03780000      -0.46450000       1.41560000
H       -2.37560000      -0.17720000       1.98300000
H       -2.58710000       1.18910000       0.88740000
H       -4.35200000      -0.11380000      -0.37900000
H       -4.23370000      -1.41340000       0.81920000
H       -4.78790000       0.18580000       1.31150000
H       -0.14590000       0.15850000      -2.34350000
H       -0.84250000      -1.47960000      -2.35130000
H       -1.61850000      -0.17900000      -3.28260000
H       -2.37550000      -2.43430000      -0.69980000
