22
Properties=species:S:1:pos:R:3 gdb_114313=T pbc="F F F"
C       -0.19700000       1.48310000      -0.27260000
C        0.03030000       0.02290000       0.05030000
N        1.26150000      -0.73870000      -0.25930000
C        2.43270000       0.13510000       0.11500000
C        2.02910000       0.14380000       1.60910000
C        1.96490000       1.41740000       2.43390000
O        3.30630000       1.81940000       2.68350000
C        0.75490000      -0.59840000       1.18710000
C        0.19400000      -1.75850000       1.96140000
H        0.64780000       2.12800000      -0.03160000
H       -0.40630000       1.59740000      -1.34220000
H       -1.06820000       1.85630000       0.27670000
H       -0.82690000      -0.58120000      -0.24810000
H        3.36420000      -0.39420000      -0.08980000
H        2.46530000       1.09990000      -0.39980000
H        2.67610000      -0.54990000       2.15620000
H        1.40920000       2.20860000       1.91260000
H        1.42740000       1.21060000       3.37490000
H        3.28760000       2.64320000       3.17920000
H       -0.34120000      -1.41150000       2.85390000
H       -0.50870000      -2.33330000       1.35140000
H        0.99010000      -2.43550000       2.29050000
