20
Properties=species:S:1:pos:R:3 gdb_113463=T pbc="F F F"
C        0.00610000       1.45630000      -0.44910000
C       -0.01000000       0.16910000       0.38390000
C       -1.38220000      -0.45640000       0.44510000
O       -1.84900000      -1.10030000      -0.76190000
C       -1.60450000      -1.90240000       0.37740000
C       -0.67410000      -3.11940000       0.32150000
N       -1.76420000      -4.01520000       0.86400000
C       -2.11240000      -3.46340000       2.18340000
C       -2.66220000      -2.79120000       0.98560000
H        1.01000000       1.88880000      -0.48720000
H       -0.31820000       1.25250000      -1.47370000
H       -0.66780000       2.20970000      -0.02700000
H        0.69410000      -0.55750000      -0.03650000
H        0.32210000       0.37890000       1.40920000
H       -2.15030000       0.14910000       0.93270000
H       -0.43340000      -3.40020000      -0.70600000
H        0.23800000      -3.11130000       0.92800000
H       -2.77780000      -4.10630000       2.75170000
H       -1.34230000      -2.97010000       2.77420000
H       -3.71040000      -2.80780000       0.70700000
