22
Properties=species:S:1:pos:R:3 gdb_98293=T pbc="F F F"
C       -0.50500000       1.28500000       0.66370000
N       -0.28510000      -0.14750000       0.63080000
C        0.94400000      -0.70780000       0.82600000
O        1.94960000      -0.04790000       1.03020000
C        0.98540000      -2.23980000       0.78730000
C        2.02770000      -2.69830000      -0.24390000
C        1.31770000      -2.75030000       2.18160000
C        0.23350000      -2.96360000       3.20580000
C        0.94030000      -4.14910000       2.59210000
H        0.46400000       1.75420000       0.83800000
H       -0.91430000       1.64820000      -0.28570000
H       -1.18990000       1.56790000       1.47120000
H       -1.07080000      -0.75490000       0.47200000
H       -0.00080000      -2.63180000       0.50230000
H        2.12820000      -3.78720000      -0.22810000
H        1.74840000      -2.39150000      -1.25700000
H        2.99660000      -2.24940000      -0.01150000
H        2.26230000      -2.36810000       2.55670000
H        0.44250000      -2.71330000       4.23990000
H       -0.79410000      -2.77970000       2.90750000
H        0.38570000      -4.75440000       1.88170000
H        1.63340000      -4.71380000       3.20610000
