20
Properties=species:S:1:pos:R:3 gdb_107702=T pbc="F F F"
C       -0.08880000       1.52650000       0.00340000
C        0.09480000       0.00520000      -0.05440000
C        0.83930000      -0.46000000      -1.27560000
C        2.27750000      -0.11990000      -1.74630000
C        1.73430000      -1.06700000      -2.83500000
O        2.30820000      -1.47360000      -4.02290000
C        0.91990000      -1.93190000      -1.79850000
N       -0.39370000      -1.81330000      -2.51330000
C        0.28820000      -0.49760000      -2.74530000
H        0.87560000       2.04530000       0.01470000
H       -0.65170000       1.88860000      -0.86330000
H       -0.63650000       1.82090000       0.90380000
H        0.62940000      -0.33500000       0.84230000
H       -0.88210000      -0.49210000      -0.04520000
H        2.46660000       0.91510000      -2.04700000
H        3.09400000      -0.49640000      -1.12000000
H        3.12840000      -1.93900000      -3.82540000
H        1.22890000      -2.82070000      -1.24400000
H       -0.37180000      -2.36810000      -3.37310000
H       -0.15110000       0.31960000      -3.31980000
