19
Properties=species:S:1:pos:R:3 gdb_14390=T pbc="F F F"
C       -0.09220000       1.59060000      -0.03450000
C        0.01570000       0.06580000      -0.09250000
C       -1.13370000      -0.60840000       0.64800000
C        0.55880000      -0.78610000      -1.18460000
C        1.83890000      -0.36700000      -1.92820000
C        2.42140000       0.94670000      -1.48620000
C        2.48530000      -0.24570000      -0.56710000
N        1.25050000      -0.73410000       0.16230000
H       -0.18100000       2.04710000      -1.02310000
H       -0.98860000       1.86490000       0.52870000
H        0.76010000       2.03860000       0.48160000
H       -2.09200000      -0.34400000       0.18690000
H       -1.02450000      -1.69520000       0.64070000
H       -1.15370000      -0.27720000       1.69150000
H        0.03660000      -1.69200000      -1.48480000
H        2.18510000      -0.89710000      -2.80550000
H        3.38770000       1.14400000      -1.94460000
H        1.84400000       1.84030000      -1.31510000
H        3.42620000      -0.63530000      -0.19970000
