21
Properties=species:S:1:pos:R:3 gdb_26219=T pbc="F F F"
C        0.05420000       1.60210000       0.20730000
C       -0.06570000       0.09190000      -0.03190000
C        0.77730000      -0.69140000       0.99610000
C       -1.50110000      -0.35420000      -0.02910000
C       -2.66450000       0.26970000       0.36170000
C       -3.74510000      -0.64510000       0.17900000
C       -3.21390000      -1.80610000      -0.33260000
N       -3.78200000      -3.02220000      -0.77400000
N       -1.85750000      -1.62080000      -0.45310000
H        1.10070000       1.91700000       0.15240000
H       -0.51530000       2.16870000      -0.53460000
H       -0.32280000       1.87070000       1.20000000
H        0.35620000      -0.11920000      -1.02720000
H        0.42210000      -0.49250000       2.01270000
H        0.71500000      -1.77150000       0.82970000
H        1.83240000      -0.40240000       0.93770000
H       -2.73830000       1.27290000       0.75220000
H       -4.78670000      -0.47430000       0.40620000
H       -4.76800000      -2.89880000      -0.97050000
H       -3.70360000      -3.75770000      -0.07630000
H       -1.24670000      -2.28610000      -0.89600000
