21
Properties=species:S:1:pos:R:3 gdb_102515=T pbc="F F F"
C        0.05690000       1.07040000       0.77590000
C        0.00320000      -0.34320000       0.19370000
C        0.56860000      -0.42410000      -1.22480000
O        1.95700000      -0.12670000      -1.18560000
C        2.40600000       0.83680000      -2.11740000
C        0.38240000      -1.84610000      -1.81940000
O       -0.98200000      -2.25910000      -1.78200000
C        0.92710000      -1.95550000      -3.17470000
C        1.29750000      -2.04210000      -4.31590000
H        1.08410000       1.44550000       0.78790000
H       -0.55190000       1.76720000       0.18820000
H       -0.32100000       1.08650000       1.80250000
H        0.58370000      -1.02780000       0.82520000
H       -1.02370000      -0.71960000       0.17680000
H        0.04240000       0.29320000      -1.87440000
H        2.24030000       0.51680000      -3.15350000
H        1.91530000       1.80940000      -1.96250000
H        3.48010000       0.95810000      -1.95350000
H        0.91880000      -2.53970000      -1.16070000
H       -1.42500000      -1.86390000      -2.54100000
H        1.64400000      -2.13310000      -5.31580000
