20
Properties=species:S:1:pos:R:3 gdb_40634=T pbc="F F F"
C        0.09760000       1.40280000       0.01500000
C        1.35140000       0.60240000      -0.05870000
N        0.05380000      -0.05620000       0.03470000
C       -0.26740000      -0.66440000       1.29240000
C       -1.58350000      -1.37250000       1.47290000
C       -2.37450000      -1.77010000       0.22360000
C       -1.48010000      -2.77450000      -0.47070000
C       -0.35510000      -2.99820000       0.20920000
C       -0.28270000      -2.17650000       1.45080000
H       -0.10150000       1.93270000       0.94530000
H       -0.30910000       1.87700000      -0.87390000
H        1.87650000       0.48120000      -1.00210000
H        1.99050000       0.59620000       0.82290000
H        0.08670000      -0.12770000       2.17900000
H       -2.12380000      -1.20200000       2.39690000
H       -3.34710000      -2.20360000       0.49060000
H       -2.58000000      -0.90780000      -0.42310000
H       -1.73160000      -3.20960000      -1.43150000
H        0.44340000      -3.66480000      -0.09540000
H        0.16400000      -2.59020000       2.34930000
