14
Properties=species:S:1:pos:R:3 gdb_23537=T pbc="F F F"
O       -0.09910000       1.29000000       0.03800000
N        0.05380000      -0.09520000      -0.06980000
C       -1.05440000      -0.68920000       0.04460000
C       -1.43100000      -2.12170000      -0.09700000
N       -2.26830000      -2.43680000       1.10460000
C       -2.88330000      -1.74910000      -0.03400000
C       -2.53600000      -0.24580000       0.12050000
C       -3.02510000       0.44760000       1.30230000
N       -3.43890000       1.00060000       2.22840000
H        0.80680000       1.60880000      -0.04330000
H       -0.92320000      -2.89800000      -0.65170000
H       -2.51620000      -3.42430000       1.03960000
H       -3.72700000      -2.15280000      -0.57640000
H       -2.78420000       0.33110000      -0.77650000
