15
Properties=species:S:1:pos:R:3 gdb_124342=T pbc="F F F"
C       -0.07790000       1.49420000       0.00730000
C        0.05490000      -0.00440000      -0.00490000
O        1.11370000      -0.60250000      -0.00000000
N       -1.14800000      -0.71340000      -0.02060000
N       -2.39350000      -0.09860000       0.01570000
C       -3.19890000      -1.13090000       0.03400000
N       -2.61860000      -2.37100000       0.01330000
C       -1.33210000      -2.08830000      -0.02350000
N       -0.31070000      -2.96100000      -0.09200000
H        0.92140000       1.92790000       0.01080000
H       -0.64250000       1.83260000      -0.86530000
H       -0.64130000       1.81750000       0.88630000
H       -4.27150000      -1.00080000       0.06410000
H       -0.52080000      -3.93100000       0.06700000
H        0.62340000      -2.59950000       0.02850000
