23
Properties=species:S:1:pos:R:3 gdb_103448=T pbc="F F F"
C        0.10410000       1.44540000       0.34290000
C       -0.03990000       0.02990000      -0.23190000
C       -1.43040000      -0.56580000      -0.07120000
C       -2.51260000       0.14950000      -0.86560000
C       -1.64140000      -2.06030000       0.06020000
C       -0.48110000      -2.98440000       0.43950000
C       -0.09310000      -2.52750000       1.83110000
C       -0.88260000      -1.54380000       2.27140000
C       -1.90460000      -1.15110000       1.26080000
H        1.12750000       1.81320000       0.21780000
H       -0.56320000       2.16100000      -0.14730000
H       -0.12650000       1.45420000       1.41350000
H        0.20910000       0.04110000      -1.30210000
H        0.70200000      -0.61350000       0.24690000
H       -2.28100000       0.14170000      -1.93760000
H       -3.48600000      -0.33290000      -0.73300000
H       -2.62040000       1.19430000      -0.55620000
H       -2.46690000      -2.48960000      -0.49730000
H       -0.79610000      -4.03640000       0.43520000
H        0.36030000      -2.91820000      -0.26380000
H        0.74920000      -2.94750000       2.37000000
H       -0.79940000      -1.06150000       3.23920000
H       -2.90870000      -0.89960000       1.58920000
