25
Properties=species:S:1:pos:R:3 gdb_101017=T pbc="F F F"
C       -0.11390000       1.57030000      -0.11410000
C       -0.14140000       0.04100000      -0.19790000
C        0.84500000      -0.55980000      -1.21940000
C        2.31440000      -0.28970000      -0.86270000
C        0.60010000      -2.05490000      -1.38830000
C       -0.50470000      -2.50420000      -2.30760000
C        0.95250000      -2.69780000      -2.70430000
O        0.82360000      -2.69000000      -0.15200000
C        0.99210000      -4.08550000      -0.12530000
H        0.84820000       1.94580000       0.24810000
H       -0.29930000       2.02610000      -1.09400000
H       -0.88510000       1.93640000       0.57110000
H        0.06380000      -0.39220000       0.78720000
H       -1.15400000      -0.28380000      -0.46760000
H        0.63760000      -0.10020000      -2.19600000
H        2.98290000      -0.72740000      -1.61130000
H        2.52630000       0.78180000      -0.81440000
H        2.56000000      -0.73390000       0.10610000
H       -1.06640000      -3.39560000      -2.05040000
H       -1.09110000      -1.74500000      -2.81440000
H        1.37200000      -2.06630000      -3.48060000
H        1.32490000      -3.71510000      -2.72000000
H        0.13600000      -4.62760000      -0.55320000
H        1.90500000      -4.40510000      -0.64720000
H        1.07900000      -4.36500000       0.92770000
