20
Properties=species:S:1:pos:R:3 gdb_96490=T pbc="F F F"
C       -0.09400000       1.56160000       0.04720000
C       -0.05770000       0.04170000      -0.02470000
C        0.52680000      -0.46160000      -1.35030000
O        0.45440000      -1.86900000      -1.45240000
C        1.65490000      -2.59440000      -1.26610000
C        2.29870000      -2.43310000       0.12510000
N        1.31460000      -2.68400000       1.16650000
C        0.57990000      -1.71390000       1.49290000
O        0.73930000      -0.41190000       1.08380000
H        0.91780000       1.97250000      -0.02730000
H       -0.69780000       1.97320000      -0.76690000
H       -0.52360000       1.88670000       0.99750000
H       -1.07160000      -0.37080000       0.07600000
H       -0.06660000      -0.04030000      -2.17270000
H        1.55830000      -0.09760000      -1.45950000
H        1.37260000      -3.63970000      -1.42060000
H        2.40020000      -2.32220000      -2.03000000
H        3.10280000      -3.17220000       0.20540000
H        2.74470000      -1.43530000       0.21500000
H       -0.22270000      -1.85220000       2.22080000
