21
Properties=species:S:1:pos:R:3 gdb_40287=T pbc="F F F"
C       -0.39020000       1.52730000      -0.03870000
C        1.09460000       1.21340000       0.00940000
C        0.06530000       0.10430000       0.00790000
C       -0.13440000      -0.72890000       1.26310000
C        0.97630000      -1.77300000       1.47060000
C        0.83970000      -3.02700000       0.59120000
O        0.28180000      -2.81430000      -0.70150000
C        0.71020000      -1.68990000      -1.41430000
O       -0.11580000      -0.56880000      -1.21280000
H       -0.86040000       1.94930000       0.84270000
H       -0.79440000       1.87410000      -0.98250000
H        1.66020000       1.36360000      -0.90300000
H        1.63980000       1.42390000       0.92380000
H       -0.14810000      -0.04870000       2.12160000
H       -1.11670000      -1.21370000       1.22050000
H        1.94410000      -1.28860000       1.29620000
H        0.98970000      -2.10700000       2.51470000
H        1.81860000      -3.52290000       0.50220000
H        0.15720000      -3.74110000       1.06340000
H        1.76060000      -1.44410000      -1.18610000
H        0.60740000      -1.93500000      -2.47440000
