19
Properties=species:S:1:pos:R:3 gdb_10403=T pbc="F F F"
C        0.10620000       1.42520000      -0.24690000
C       -0.10970000      -0.07350000      -0.02570000
C       -1.58550000      -0.48710000       0.14770000
C       -2.41290000      -0.45140000      -1.18760000
C       -2.21800000      -1.98390000      -1.32650000
C       -1.77710000      -2.04460000       0.15940000
C       -2.18980000       0.21600000       1.27410000
N       -2.67830000       0.76590000       2.16720000
H        1.16990000       1.64380000      -0.37720000
H       -0.41700000       1.78100000      -1.14040000
H       -0.25620000       2.00590000       0.60650000
H        0.29490000      -0.64050000      -0.87280000
H        0.44490000      -0.40170000       0.86150000
H       -3.45410000      -0.17400000      -1.01330000
H       -2.00810000       0.18560000      -1.97670000
H       -3.10090000      -2.56510000      -1.59700000
H       -1.41190000      -2.24510000      -2.01610000
H       -0.88200000      -2.62170000       0.40300000
H       -2.58590000      -2.35080000       0.82550000
