25
Properties=species:S:1:pos:R:3 gdb_59263=T pbc="F F F"
C        0.10990000       1.33770000      -0.50820000
C        0.13060000      -0.06880000       0.11090000
C        0.66740000      -0.02640000       1.55030000
C       -1.26190000      -0.67990000       0.08310000
C       -1.93890000      -1.33550000      -1.10140000
C       -1.11770000      -1.86700000      -2.27070000
C       -0.06620000      -2.83810000      -1.67000000
C       -0.57060000      -3.20620000      -0.24890000
C       -1.60470000      -2.15340000       0.13340000
H        1.10860000       1.78740000      -0.50480000
H       -0.24860000       1.31280000      -1.54200000
H       -0.55470000       2.00200000       0.05740000
H        0.81680000      -0.68220000      -0.48140000
H        1.67480000       0.40220000       1.58560000
H        0.02230000       0.59000000       2.18810000
H        0.70800000      -1.02780000       1.99020000
H       -1.95830000      -0.07890000       0.66960000
H       -2.96240000      -1.04190000      -1.31220000
H       -1.79040000      -2.40450000      -2.94880000
H       -0.64560000      -1.07620000      -2.86460000
H        0.06230000      -3.72740000      -2.29380000
H        0.91580000      -2.36100000      -1.61970000
H       -1.06290000      -4.18540000      -0.26010000
H        0.25590000      -3.28290000       0.46680000
H       -2.38400000      -2.45740000       0.82510000
