16
Properties=species:S:1:pos:R:3 gdb_131864=T pbc="F F F"
O        0.01840000       1.36750000      -0.34820000
C       -0.02390000       0.01140000       0.07490000
C       -1.49050000      -0.38420000       0.14670000
N       -2.09170000      -0.21490000      -1.16750000
C       -3.40410000      -0.54370000      -1.38110000
N       -4.13130000      -0.01120000      -2.33720000
O       -5.35250000      -0.65060000      -2.26630000
N       -5.38030000      -1.56060000      -1.26110000
C       -4.20440000      -1.51740000      -0.70210000
H        0.92610000       1.59540000      -0.56780000
H        0.49540000      -0.64470000      -0.63820000
H        0.43610000      -0.11870000       1.06530000
H       -1.55700000      -1.43390000       0.45280000
H       -1.99060000       0.22410000       0.91670000
H       -1.80430000       0.64480000      -1.61680000
H       -3.96410000      -2.15310000       0.13480000
