23
Properties=species:S:1:pos:R:3 gdb_82302=T pbc="F F F"
C       -0.69040000       1.20970000      -0.02540000
C        0.03650000      -0.13210000      -0.15700000
C        1.07410000      -0.19410000      -1.27000000
C        2.39150000       0.54550000      -1.09170000
C        2.25780000      -0.90470000      -0.69880000
O        2.04270000      -1.21700000       0.64780000
C        0.80110000      -0.63830000       1.12260000
C        1.14830000       0.45320000       2.14450000
C        0.02930000      -1.76370000       1.81840000
H        0.00300000       2.03570000       0.15480000
H       -1.23470000       1.43260000      -0.94870000
H       -1.42070000       1.19570000       0.79060000
H       -0.71990000      -0.89000000      -0.39670000
H        0.72330000      -0.38390000      -2.27840000
H        2.94870000       0.76810000      -1.99600000
H        2.49340000       1.29050000      -0.31130000
H        2.81580000      -1.67590000      -1.21830000
H        1.69160000       1.28750000       1.69590000
H        0.24880000       0.85110000       2.62380000
H        1.78520000       0.02100000       2.92140000
H        0.59690000      -2.14970000       2.67020000
H       -0.93790000      -1.40340000       2.18550000
H       -0.14790000      -2.58870000       1.12260000
