19
Properties=species:S:1:pos:R:3 gdb_95594=T pbc="F F F"
C       -0.13020000       1.53190000       0.02770000
C        0.03920000       0.01450000      -0.01550000
C        0.83940000      -0.48430000      -1.23020000
C        0.86130000      -2.00740000      -1.26300000
N        1.36750000      -2.53850000      -0.00360000
C        1.13040000      -1.99180000       1.24360000
N        1.29550000      -2.56690000       2.37260000
C        0.67780000      -0.52450000       1.26290000
O        0.81970000       0.14670000       2.25210000
H        0.84370000       2.03090000       0.05360000
H       -0.67310000       1.88260000      -0.85520000
H       -0.67560000       1.83730000       0.92250000
H       -0.95600000      -0.45900000      -0.06740000
H        0.39230000      -0.10630000      -2.15510000
H        1.86500000      -0.09800000      -1.18230000
H       -0.15490000      -2.37980000      -1.47510000
H        1.50880000      -2.36590000      -2.07020000
H        1.56940000      -3.52840000       0.00390000
H        1.59160000      -3.53970000       2.25380000
