15
Properties=species:S:1:pos:R:3 gdb_9862=T pbc="F F F"
C       -0.05090000       1.49810000       0.01540000
C        0.00260000      -0.02060000      -0.02340000
C        0.74740000      -0.68760000      -1.13850000
N        1.30210000      -0.70050000       0.21830000
C       -1.14270000      -0.68160000       0.54650000
C       -2.13360000      -1.19620000       1.01490000
C       -3.24080000      -1.78540000       1.54080000
C       -4.22560000      -2.30630000       2.00730000
H        0.83020000       1.92390000      -0.47550000
H       -0.94260000       1.87010000      -0.49770000
H       -0.08260000       1.85810000       1.04840000
H        0.41190000      -1.65330000      -1.50310000
H        1.19130000      -0.03930000      -1.89020000
H        2.02750000       0.00840000       0.30640000
H       -5.08890000      -2.76710000       2.41870000
