15
Properties=species:S:1:pos:R:3 gdb_70779=T pbc="F F F"
C        0.05990000       1.40250000      -0.15470000
C        0.00620000      -0.07830000      -0.01470000
O        0.52320000      -0.93870000      -1.08540000
C        0.06160000      -1.89020000      -0.09780000
C        0.18160000      -3.30410000      -0.32410000
N        0.25290000      -4.45110000      -0.45260000
C        0.49570000      -1.01630000       1.14010000
N       -0.84550000      -0.99380000       1.79230000
C       -1.18510000      -1.03100000       0.34050000
H        1.09390000       1.74100000      -0.26720000
H       -0.51040000       1.72700000      -1.02980000
H       -0.36890000       1.86530000       0.73870000
H        1.44550000      -1.02620000       1.67440000
H       -1.05080000      -1.88920000       2.24030000
H       -2.19850000      -1.05800000      -0.05930000
