17
Properties=species:S:1:pos:R:3 gdb_63729=T pbc="F F F"
C       -0.04740000       1.57580000       0.11110000
C        0.01440000       0.06290000      -0.01050000
O       -1.26230000      -0.52810000      -0.14160000
C        1.07410000      -0.54220000      -1.01660000
C        1.72040000      -1.26500000       0.16280000
O        2.08770000      -0.27690000       1.14750000
C        0.73860000      -0.69190000       1.12780000
C        2.39010000      -2.57550000       0.23310000
O        2.49880000      -3.32330000      -0.70740000
H        0.94280000       1.98200000       0.33120000
H       -0.39640000       2.02300000      -0.82770000
H       -0.73900000       1.86620000       0.90780000
H       -1.69100000      -0.14970000      -0.91680000
H        0.59680000      -1.23650000      -1.70960000
H        1.72500000       0.15290000      -1.55100000
H        0.30640000      -1.11230000       2.02980000
H        2.77930000      -2.82100000       1.24500000
