17
Properties=species:S:1:pos:R:3 gdb_54821=T pbc="F F F"
N       -0.32910000       1.19770000       0.27260000
C       -0.26160000      -0.17530000       0.21150000
O        0.63160000      -0.82490000       0.71610000
N       -1.30710000      -0.73670000      -0.53900000
C       -1.95270000      -1.98680000      -0.20230000
C       -1.86820000      -2.51150000       1.23090000
C       -2.54270000      -1.42740000       2.04320000
C       -3.03710000      -0.45010000       1.27840000
C       -2.73120000      -0.69230000      -0.16540000
H        0.52120000       1.65040000       0.56740000
H       -0.87450000       1.67910000      -0.42370000
H       -2.03720000      -2.69270000      -1.02250000
H       -2.39510000      -3.47000000       1.31830000
H       -0.83150000      -2.67290000       1.54000000
H       -2.57180000      -1.44810000       3.12670000
H       -3.56030000       0.43050000       1.62960000
H       -3.41170000      -0.37190000      -0.94880000
