15
Properties=species:S:1:pos:R:3 gdb_35885=T pbc="F F F"
C       -0.37290000      -1.26620000      -0.43590000
C       -0.21830000      -0.11400000      -0.13570000
C       -0.06980000       1.29550000       0.18930000
O       -0.31750000       1.55290000       1.57330000
C        0.71550000       2.39730000       2.05430000
O        1.36020000       2.94640000       0.92960000
C        1.35280000       1.90620000      -0.04320000
C        2.45770000       0.96630000       0.14070000
C        3.38560000       0.22060000       0.30060000
H       -0.49770000      -2.28890000      -0.69430000
H       -0.78280000       1.88010000      -0.40880000
H        0.28850000       3.21760000       2.63920000
H        1.41790000       1.80930000       2.66540000
H        1.41750000       2.37960000      -1.02600000
H        4.20120000      -0.44590000       0.43800000
