16
Properties=species:S:1:pos:R:3 gdb_18884=T pbc="F F F"
C        0.00970000       1.59460000      -0.01280000
C        1.52260000       1.87870000       0.00790000
O        2.04610000       1.68830000       1.34380000
C        2.13620000       0.26430000       1.10140000
C        0.76790000      -0.40030000       1.33830000
C        0.04070000       0.04770000       0.04690000
O        1.01830000      -0.26580000      -0.96450000
C        2.08370000       0.49170000      -0.44410000
H       -0.49860000       2.07020000       0.82840000
H       -0.44760000       1.92130000      -0.95140000
H        1.84820000       2.81770000      -0.44150000
H        2.99270000      -0.19360000       1.59800000
H        0.84940000      -1.49100000       1.35990000
H        0.30650000      -0.04820000       2.26330000
H       -0.89430000      -0.46230000      -0.18130000
H        2.97850000       0.41750000      -1.05580000
