21
Properties=species:S:1:pos:R:3 gdb_112929=T pbc="F F F"
C        0.06030000       1.41570000       0.08120000
O        0.01170000      -0.00020000       0.05120000
C        0.66080000      -0.56260000      -1.04290000
O        2.04660000      -0.28280000      -0.94800000
C        2.83280000      -1.01460000      -1.88380000
C        4.24370000      -0.45070000      -1.82660000
C        2.76160000      -2.51450000      -1.56510000
C        1.34320000      -2.93080000      -1.27970000
C        0.38250000      -2.04180000      -1.04850000
H        1.08370000       1.78220000       0.21440000
H       -0.35200000       1.84650000      -0.84420000
H       -0.55370000       1.73450000       0.92630000
H        0.27780000      -0.09550000      -1.97740000
H        2.41890000      -0.85860000      -2.89570000
H        4.65360000      -0.55930000      -0.81760000
H        4.89790000      -0.97980000      -2.52650000
H        4.24330000       0.61160000      -2.08450000
H        3.16740000      -3.09120000      -2.40630000
H        3.40060000      -2.74310000      -0.70000000
H        1.12170000      -3.99490000      -1.26340000
H       -0.64530000      -2.33070000      -0.85460000
