20
Properties=species:S:1:pos:R:3 gdb_80242=T pbc="F F F"
C       -0.18230000       1.56790000       1.02410000
C       -0.08600000       0.10080000       0.63860000
C        0.94800000      -0.39540000      -0.42570000
N        2.25160000       0.01960000       0.14070000
C        2.09190000      -0.23030000       1.50730000
O        2.82890000       0.07890000       2.40960000
C        0.72390000      -0.92970000       1.52110000
C        0.84650000      -1.81140000       0.22190000
C       -0.31490000      -2.72700000      -0.14000000
H        0.79440000       2.01090000       1.23900000
H       -0.64820000       2.14780000       0.21970000
H       -0.80150000       1.69040000       1.91900000
H       -1.08400000      -0.28700000       0.42670000
H        0.85580000      -0.21580000      -1.49680000
H        2.71680000       0.86560000      -0.15390000
H        0.37860000      -1.30550000       2.48200000
H        1.78520000      -2.36810000       0.15000000
H       -1.29350000      -2.24510000      -0.07740000
H       -0.19550000      -3.10520000      -1.16130000
H       -0.33110000      -3.59330000       0.52970000
