22
Properties=species:S:1:pos:R:3 gdb_91927=T pbc="F F F"
C        0.00940000       1.57370000       0.00770000
C        0.04970000       0.04550000      -0.02300000
C       -1.37990000      -0.52040000      -0.01660000
C        0.82420000      -0.54110000      -1.24540000
O        1.82670000       0.38390000      -1.66470000
C        1.42000000      -1.85900000      -0.69980000
C        1.54930000      -1.62550000       0.79790000
C        2.17300000      -0.35210000       1.24190000
N        0.70630000      -0.48610000       1.20300000
H        1.01250000       2.00110000       0.02770000
H       -0.50260000       1.96560000      -0.87620000
H       -0.53250000       1.90720000       0.89750000
H       -1.95290000      -0.14730000      -0.87170000
H       -1.37840000      -1.61440000      -0.05690000
H       -1.88960000      -0.22430000       0.90360000
H        0.13520000      -0.73090000      -2.07950000
H        2.31030000      -0.01710000      -2.39350000
H        0.73720000      -2.69400000      -0.89140000
H        2.37100000      -2.10150000      -1.18690000
H        1.54920000      -2.49100000       1.45510000
H        2.58240000      -0.27710000       2.24570000
H        2.66440000       0.25790000       0.49200000
