19
Properties=species:S:1:pos:R:3 gdb_14975=T pbc="F F F"
C       -0.02230000       1.56690000      -0.10020000
C       -0.00480000       0.03870000       0.02050000
C        0.70820000      -0.49950000       1.26880000
C       -0.03250000      -0.16260000       2.56140000
O        0.62480000      -0.71820000       3.71040000
C        1.18920000      -1.93770000       3.53450000
N        1.33070000      -2.61490000       2.47720000
C        0.88080000      -2.02460000       1.21960000
H        0.99440000       1.97490000      -0.09150000
H       -0.49690000       1.87830000      -1.03560000
H       -0.57580000       2.03900000       0.71790000
H       -1.03400000      -0.34570000       0.00230000
H        0.48860000      -0.38480000      -0.86340000
H        1.70690000      -0.04490000       1.33120000
H       -0.08460000       0.91190000       2.74850000
H       -1.05890000      -0.55480000       2.52400000
H        1.55050000      -2.31410000       4.49010000
H       -0.06610000      -2.50220000       0.92780000
H        1.60520000      -2.29620000       0.44270000
