16
Properties=species:S:1:pos:R:3 gdb_31872=T pbc="F F F"
O        0.27740000       1.10370000       0.70870000
C        0.02120000       0.03550000      -0.18910000
C       -1.40570000      -0.46600000      -0.14070000
C       -2.13300000      -0.45960000       1.04690000
N       -3.38920000      -0.90660000       1.15890000
C       -3.97130000      -1.39020000       0.06830000
O       -5.23650000      -1.84410000       0.18870000
C       -3.34920000      -1.44690000      -1.18370000
C       -2.05290000      -0.97190000      -1.27410000
H       -0.33360000       1.81680000       0.49360000
H        0.27880000       0.30570000      -1.22570000
H        0.71760000      -0.75720000       0.11010000
H       -1.68050000      -0.06400000       1.95170000
H       -5.47540000      -1.71530000       1.11740000
H       -3.88380000      -1.84360000      -2.03770000
H       -1.53660000      -0.99030000      -2.23020000
