18
Properties=species:S:1:pos:R:3 gdb_90191=T pbc="F F F"
C        0.02530000       1.46950000      -0.13320000
N       -0.03370000       0.03130000       0.07200000
C       -1.41880000      -0.49020000       0.35050000
C       -1.02810000      -1.27290000       1.58190000
O       -1.46320000      -2.18260000       2.61530000
C        0.00450000      -1.92000000       2.86140000
C        0.36730000      -1.93080000       1.36090000
C        0.79560000      -0.46610000       1.21600000
C       -0.08520000      -0.42340000       2.48770000
H        1.06640000       1.76690000      -0.29660000
H       -0.54090000       1.74100000      -1.02990000
H       -0.37080000       2.06520000       0.70980000
H       -2.13030000       0.31910000       0.55390000
H       -1.79050000      -1.09920000      -0.47910000
H        0.43570000      -2.43070000       3.71990000
H        0.56010000      -2.78470000       0.71500000
H        1.82690000      -0.12020000       1.15800000
H       -0.40340000       0.40140000       3.12290000
