19
Properties=species:S:1:pos:R:3 gdb_111599=T pbc="F F F"
C        0.25990000       1.26330000       0.23760000
O       -0.30080000       0.04920000      -0.21230000
C        0.45540000      -0.58110000      -1.19610000
C        1.79160000      -1.30310000      -0.83570000
O        1.40780000      -2.12230000       0.27020000
C        0.47460000      -2.95530000      -0.43660000
C        1.39600000      -3.69180000      -1.43470000
C        1.51150000      -2.28900000      -2.04970000
C        0.02850000      -1.98080000      -1.60980000
H        1.23410000       1.10940000       0.72310000
H        0.39200000       1.98050000      -0.58820000
H       -0.43230000       1.69000000       0.96700000
H        0.59320000       0.05960000      -2.08270000
H        2.74060000      -0.80210000      -0.65420000
H       -0.21270000      -3.44630000       0.24870000
H        2.28020000      -4.18350000      -1.02160000
H        0.84770000      -4.36420000      -2.09990000
H        1.92460000      -2.06290000      -3.03000000
H       -0.85570000      -2.21750000      -2.19690000
