23
Properties=species:S:1:pos:R:3 gdb_59596=T pbc="F F F"
C       -0.04610000       1.61530000       0.05970000
C        0.01260000       0.08620000       0.06250000
O        0.70570000      -0.38640000       1.22060000
C       -1.36960000      -0.56260000      -0.05560000
C       -2.17290000      -0.17540000      -1.32710000
C       -3.04160000      -1.38880000      -1.55800000
C       -2.64040000      -2.43090000      -0.83290000
C       -1.40220000      -2.12810000      -0.01640000
C       -0.16550000      -2.83490000      -0.60240000
H        0.95680000       2.02750000       0.19980000
H       -0.45260000       2.00320000      -0.87920000
H       -0.68310000       1.98090000       0.87550000
H        0.63750000      -0.24320000      -0.77600000
H        0.18920000      -0.12910000       1.99260000
H       -1.95990000      -0.21800000       0.80700000
H       -2.74910000       0.74620000      -1.18930000
H       -1.51340000       0.00390000      -2.19030000
H       -3.86820000      -1.39100000      -2.26030000
H       -3.08660000      -3.42000000      -0.85790000
H       -1.51280000      -2.47010000       1.01960000
H        0.01800000      -2.52680000      -1.63740000
H        0.72400000      -2.61680000      -0.00680000
H       -0.31730000      -3.91960000      -0.60910000
