18
Properties=species:S:1:pos:R:3 gdb_74292=T pbc="F F F"
C        0.03730000       1.52250000      -0.00220000
C       -0.00720000       0.03020000      -0.03080000
C       -1.04830000      -0.77990000       0.13480000
C       -0.60950000      -2.22690000       0.03730000
C       -1.36490000      -3.05430000      -1.00980000
O        0.77010000      -2.15500000      -0.32720000
C        1.22820000      -0.80660000      -0.24570000
C       -0.72890000      -2.88510000       1.36840000
N       -0.83460000      -3.38730000       2.40400000
H        0.71250000       1.87800000       0.78580000
H        0.41940000       1.92440000      -0.94850000
H       -0.95130000       1.95030000       0.17820000
H       -2.07390000      -0.50030000       0.33640000
H       -1.29040000      -2.55290000      -1.97750000
H       -0.92460000      -4.05120000      -1.08760000
H       -2.41850000      -3.15680000      -0.73570000
H        1.75700000      -0.55620000      -1.17580000
H        1.94570000      -0.69030000       0.58240000
