19
Properties=species:S:1:pos:R:3 gdb_89118=T pbc="F F F"
C        0.57950000       1.61700000      -0.06810000
C        0.21280000       0.16690000       0.11290000
O        1.27670000      -0.76700000       0.33610000
C        0.30490000      -0.58500000       1.37650000
C        0.80570000      -0.02620000       2.68660000
C        1.68670000      -1.04500000       3.40820000
O        2.08270000      -0.54030000       4.68880000
C        3.37550000      -0.21160000       4.87050000
O        3.78920000       0.24470000       5.89300000
H        1.32570000       1.94700000       0.65690000
H        0.99200000       1.77470000      -1.06990000
H       -0.30950000       2.24910000       0.03020000
H       -0.53050000      -0.19510000      -0.60120000
H       -0.37120000      -1.43700000       1.48680000
H        1.38060000       0.89000000       2.52760000
H       -0.04730000       0.22740000       3.32680000
H        1.14220000      -1.97640000       3.59250000
H        2.56840000      -1.28060000       2.80020000
H        3.99870000      -0.41660000       3.97730000
