17
Properties=species:S:1:pos:R:3 gdb_93992=T pbc="F F F"
C       -0.11130000       1.42570000      -0.01050000
N       -0.02830000      -0.00860000       0.13490000
C       -1.15630000      -0.87800000      -0.13080000
C       -0.56300000      -2.27420000       0.13150000
N        0.87080000      -2.04970000      -0.04490000
C        1.77340000      -3.08980000      -0.17700000
O        2.96700000      -2.99950000      -0.28080000
C        1.18250000      -0.66360000       0.02930000
O        2.27630000      -0.16220000       0.01410000
H        0.89280000       1.83110000       0.12280000
H       -0.48140000       1.71100000      -1.00560000
H       -0.78010000       1.85370000       0.74400000
H       -1.99940000      -0.66110000       0.53240000
H       -1.50740000      -0.77220000      -1.16920000
H       -0.78250000      -2.60620000       1.15320000
H       -0.93970000      -3.02570000      -0.56590000
H        1.23550000      -4.06150000      -0.18720000
