19
Properties=species:S:1:pos:R:3 gdb_93141=T pbc="F F F"
O        0.06180000       1.51830000       0.12890000
C        0.14710000       0.09490000       0.08430000
C        0.58170000      -0.45840000       1.44710000
C        1.00230000      -1.90290000       1.48110000
C        0.45680000      -2.95740000       0.87710000
C       -0.74040000      -3.08250000      -0.02450000
C       -1.56360000      -1.88390000      -0.43210000
O       -2.08340000      -0.99500000       0.56320000
C       -1.16960000      -0.47030000      -0.41570000
H       -0.60430000       1.74790000       0.78740000
H        0.92360000      -0.11040000      -0.66200000
H        1.41370000       0.16720000       1.78350000
H       -0.24360000      -0.29830000       2.15480000
H        1.87200000      -2.10250000       2.10350000
H        0.93230000      -3.92070000       1.05710000
H       -0.41840000      -3.56920000      -0.95830000
H       -1.43160000      -3.80880000       0.43060000
H       -2.31000000      -2.15140000      -1.18460000
H       -1.63950000       0.18500000      -1.15180000
