23
Properties=species:S:1:pos:R:3 gdb_114739=T pbc="F F F"
C        0.02310000       1.57500000       0.09260000
C        0.09650000       0.04380000       0.07850000
C        0.73320000      -0.52190000      -1.19470000
C        2.21500000      -0.09910000      -1.41870000
C        2.83670000      -1.24550000      -2.19670000
O        3.13670000      -2.37740000      -1.36930000
C        1.93980000      -2.40940000      -2.15990000
C        0.67840000      -2.08430000      -1.36170000
C        0.60910000      -2.90460000      -0.06590000
H        1.01920000       2.02730000       0.04920000
H       -0.54880000       1.95180000      -0.76320000
H       -0.46420000       1.93760000       1.00300000
H        0.65770000      -0.30100000       0.95590000
H       -0.91780000      -0.36180000       0.18470000
H        0.16930000      -0.11550000      -2.04580000
H        2.28700000       0.84590000      -1.96530000
H        2.75090000       0.02970000      -0.47080000
H        3.54460000      -1.06340000      -3.00200000
H        1.92350000      -3.17480000      -2.93340000
H       -0.19640000      -2.33930000      -1.97200000
H        1.48710000      -2.72460000       0.55860000
H       -0.28810000      -2.66870000       0.51280000
H        0.58220000      -3.97490000      -0.29690000
