23
Properties=species:S:1:pos:R:3 gdb_118585=T pbc="F F F"
C        0.37120000       1.34930000       0.37610000
O       -0.19230000       0.12860000      -0.05040000
C        0.46650000      -0.49780000      -1.15740000
C        0.98890000      -1.86970000      -0.71730000
C        2.03610000      -1.80200000       0.39520000
O        2.53200000      -3.08240000       0.75710000
C       -0.51830000      -0.61210000      -2.32600000
C       -1.00740000       0.73760000      -2.85340000
O       -1.88740000       0.60520000      -3.95990000
H        1.41070000       1.23140000       0.71660000
H        0.35190000       2.11510000      -0.41360000
H       -0.23110000       1.70350000       1.21730000
H        1.31970000       0.12560000      -1.46940000
H        0.13360000      -2.46760000      -0.37280000
H        1.42120000      -2.39190000      -1.57850000
H        2.91090000      -1.23600000       0.05390000
H        1.62020000      -1.27290000       1.26440000
H        1.80210000      -3.58110000       1.13770000
H       -0.05000000      -1.16450000      -3.14870000
H       -1.38160000      -1.20330000      -1.99000000
H       -1.47290000       1.30820000      -2.03720000
H       -0.15960000       1.32600000      -3.22360000
H       -2.68260000       0.16090000      -3.64890000
