21
Properties=species:S:1:pos:R:3 gdb_58757=T pbc="F F F"
C        0.01170000       1.50240000       0.09110000
C        0.04610000      -0.02140000      -0.03920000
O       -1.27110000      -0.56990000      -0.10280000
C        0.74810000      -0.48690000      -1.28900000
C        0.32000000      -0.26020000      -2.77170000
C        1.61750000      -1.11270000      -2.84670000
C        2.21160000      -0.18360000      -1.74720000
C        0.99950000      -1.96180000      -1.69170000
O        1.83750000      -2.67840000      -0.81800000
H        1.02360000       1.91760000       0.13250000
H       -0.51620000       1.94740000      -0.75780000
H       -0.50690000       1.79950000       1.00990000
H        0.58810000      -0.44350000       0.82340000
H       -1.73160000      -0.32410000       0.70560000
H       -0.61270000      -0.73280000      -3.08980000
H        0.40160000       0.76300000      -3.14500000
H        2.11520000      -1.47360000      -3.74800000
H        2.41980000       0.84670000      -2.04900000
H        3.00930000      -0.60000000      -1.13270000
H        0.10140000      -2.53610000      -1.95050000
H        2.02330000      -3.53490000      -1.21410000
