20
Properties=species:S:1:pos:R:3 gdb_28433=T pbc="F F F"
C       -0.01750000       1.53160000      -0.01730000
C        0.01300000       0.02330000      -0.00340000
C        0.00900000      -0.69900000      -1.19660000
C        0.03510000      -2.08860000      -1.22140000
C        0.06770000      -2.80770000      -0.02360000
N        0.15850000      -4.20460000      -0.02110000
C        0.07030000      -2.08920000       1.17890000
C        0.04440000      -0.69710000       1.20630000
C        0.04800000       0.02570000       2.53110000
H        0.86070000       1.96610000       0.47650000
H       -0.04040000       1.91150000      -1.04220000
H       -0.89680000       1.93140000       0.50310000
H       -0.01790000      -0.15810000      -2.13870000
H        0.03390000      -2.61760000      -2.17000000
H       -0.21760000      -4.64640000      -0.84800000
H       -0.19880000      -4.64350000       0.81560000
H        0.09760000      -2.63660000       2.11820000
H        0.91590000       0.68940000       2.62630000
H       -0.84100000       0.65680000       2.65030000
H        0.07290000      -0.67780000       3.36720000
