20
Properties=species:S:1:pos:R:3 gdb_68421=T pbc="F F F"
C       -0.02550000       1.52190000       0.05530000
C        0.03980000       0.01330000       0.05280000
C        0.95530000      -0.79610000      -0.91810000
C        0.73000000      -1.93370000       0.11490000
C        0.71180000      -0.81480000       1.19270000
C       -0.76810000      -2.23840000      -0.06250000
C       -1.30560000      -0.75990000      -0.13190000
C       -2.29980000      -0.44400000       0.88720000
N       -3.07720000      -0.18490000       1.70350000
H        0.96960000       1.95580000       0.19410000
H       -0.42750000       1.90260000      -0.89090000
H       -0.67000000       1.88800000       0.86170000
H        0.61530000      -0.94980000      -1.94770000
H        1.97970000      -0.41690000      -0.91430000
H        1.39950000      -2.79040000       0.18410000
H        1.71060000      -0.44000000       1.42800000
H        0.14590000      -0.98290000       2.11350000
H       -0.98810000      -2.78870000      -0.98070000
H       -1.19210000      -2.79030000       0.77920000
H       -1.74540000      -0.53640000      -1.10940000
