18
Properties=species:S:1:pos:R:3 gdb_67989=T pbc="F F F"
C        0.02690000       1.45640000       0.05520000
C        0.05190000      -0.04900000      -0.03110000
C       -0.07580000      -0.69920000      -1.39620000
C       -0.75780000      -2.04080000      -1.09170000
O       -1.18730000      -2.83320000      -1.88660000
C       -0.75280000      -2.16070000       0.42170000
C        0.72910000      -2.30200000       0.89010000
C        0.69840000      -0.79380000       1.08600000
N       -0.81550000      -0.74500000       0.97340000
H        0.91590000       1.88860000      -0.41690000
H       -0.85710000       1.85630000      -0.45220000
H       -0.00500000       1.78490000       1.09750000
H       -0.71350000      -0.10650000      -2.06110000
H        0.87280000      -0.86250000      -1.91830000
H       -1.49040000      -2.84850000       0.82820000
H        0.78090000      -2.82620000       1.84600000
H        1.46120000      -2.73800000       0.20290000
H        1.22130000      -0.25940000       1.87440000
