17
Properties=species:S:1:pos:R:3 gdb_78131=T pbc="F F F"
C        0.18240000       1.62310000      -0.29670000
C        0.12960000       0.11500000      -0.19840000
C        0.72390000      -0.83950000      -1.19140000
C        1.31440000      -0.77100000       0.20930000
C        2.59120000      -0.26460000      -0.44620000
O        3.68210000       0.05240000      -0.08620000
N        1.98590000      -0.33220000      -1.73700000
C        2.18780000       0.34110000      -2.93010000
N        3.25840000       0.96770000      -3.19730000
H        1.11830000       1.97490000      -0.73680000
H       -0.64450000       1.99720000      -0.90990000
H        0.09290000       2.07220000       0.69720000
H       -0.79580000      -0.26820000       0.23100000
H        0.21660000      -1.67130000      -1.66260000
H        1.26070000      -1.49030000       1.01360000
H        1.31930000       0.23250000      -3.59420000
H        3.20110000       1.37240000      -4.13020000
