15
Properties=species:S:1:pos:R:3 gdb_53925=T pbc="F F F"
N       -0.04750000       1.36020000       0.14610000
C        0.08640000       0.01090000      -0.03440000
N        1.12550000      -0.68620000      -0.26040000
C       -1.28840000      -0.71530000      -0.02910000
N       -2.13620000      -0.13760000       1.03520000
C       -1.94780000      -0.50190000      -1.32340000
C       -2.50230000      -0.32910000      -2.37320000
C       -1.08310000      -2.17160000       0.17230000
N       -1.04410000      -3.30270000       0.40240000
H        0.78370000       1.90220000       0.31640000
H       -0.90110000       1.66960000       0.58860000
H        1.97230000      -0.11540000      -0.27560000
H       -3.09000000      -0.46600000       0.91840000
H       -1.81070000      -0.47410000       1.93850000
H       -2.98110000      -0.18070000      -3.31010000
