14
Properties=species:S:1:pos:R:3 gdb_128042=T pbc="F F F"
C        0.52590000       1.27040000      -0.67950000
N        0.66040000      -0.09820000      -1.13880000
C       -0.14650000      -0.95170000      -0.71710000
O       -0.10280000      -2.27490000      -1.10600000
C        0.91080000      -2.67070000      -1.88770000
N        0.83440000      -3.05970000      -3.11910000
C        2.13350000      -3.44250000      -3.34680000
N        2.94980000      -3.30630000      -2.33750000
O        2.11750000      -2.78480000      -1.33260000
H        0.38600000       1.92610000      -1.54480000
H       -0.30950000       1.42510000       0.01920000
H        1.45530000       1.57640000      -0.18890000
H       -0.98270000      -0.82030000      -0.02710000
H        2.47820000      -3.83400000      -4.29280000
