19
Properties=species:S:1:pos:R:3 gdb_92375=T pbc="F F F"
O       -0.32200000       1.42050000      -0.03590000
C       -0.08510000       0.01260000      -0.01660000
C        0.59910000      -0.49490000       1.28560000
C       -0.52350000      -1.34040000       1.93070000
C       -1.78540000      -0.55100000       1.57730000
C       -1.48200000      -0.64730000       0.05730000
O       -2.39940000      -0.14840000      -0.86690000
C       -1.28460000      -2.16560000      -0.07370000
O       -0.66680000      -2.55080000       1.16300000
H        0.50080000       1.87070000      -0.24660000
H        0.44620000      -0.29030000      -0.92770000
H        1.49010000      -1.09900000       1.09990000
H        0.87320000       0.35770000       1.91510000
H       -0.35780000      -1.61910000       2.97100000
H       -2.70880000      -1.06050000       1.85920000
H       -1.78660000       0.47730000       1.94360000
H       -2.21910000       0.79860000      -0.93170000
H       -2.25120000      -2.67020000      -0.19410000
H       -0.64150000      -2.43710000      -0.92040000
