15
Properties=species:S:1:pos:R:3 gdb_10060=T pbc="F F F"
O        0.26430000       1.33260000       0.01700000
C        0.07100000      -0.06310000       0.12080000
C       -1.42110000      -0.46830000       0.02860000
C       -1.58950000      -1.99770000       0.10830000
C       -2.89310000      -2.44610000      -0.37400000
N       -3.91620000      -2.78980000      -0.78610000
C       -2.20800000       0.23490000       1.12640000
O       -2.79170000      -0.34440000       2.00620000
H        0.10920000       1.59520000      -0.89610000
H        0.63940000      -0.61410000      -0.64300000
H        0.47260000      -0.35360000       1.09790000
H       -1.79990000      -0.10030000      -0.93540000
H       -0.81490000      -2.49450000      -0.48630000
H       -1.47340000      -2.32100000       1.14750000
H       -2.18020000       1.34120000       1.07620000
