23
Properties=species:S:1:pos:R:3 gdb_119103=T pbc="F F F"
C       -0.14540000       1.65020000       0.10720000
C       -0.09730000       0.13040000       0.28440000
C       -1.37190000      -0.56670000      -0.20470000
C       -1.33770000      -2.08600000      -0.05620000
C       -1.71180000      -2.67660000       1.29730000
C       -2.65970000      -2.81390000       0.14010000
C       -0.31880000      -2.76190000      -0.82020000
C        0.53690000      -3.30680000      -1.47190000
C        1.56740000      -3.97300000      -2.25630000
H        0.77580000       2.12250000       0.46280000
H       -0.27290000       1.92230000      -0.94670000
H       -0.98060000       2.09110000       0.66350000
H        0.76210000      -0.28060000      -0.25790000
H        0.06330000      -0.11480000       1.34200000
H       -2.23660000      -0.18240000       0.35220000
H       -1.54490000      -0.31580000      -1.25940000
H       -1.17460000      -3.55750000       1.62760000
H       -1.96180000      -1.97570000       2.08700000
H       -3.56060000      -2.20940000       0.13600000
H       -2.76660000      -3.78860000      -0.32090000
H        1.25790000      -4.98450000      -2.54290000
H        1.78280000      -3.42270000      -3.17920000
H        2.50650000      -4.06100000      -1.69800000
