19
Properties=species:S:1:pos:R:3 gdb_53038=T pbc="F F F"
C       -0.01760000       1.49650000       0.01420000
C       -0.00260000       0.04150000      -0.00680000
C        0.01270000      -1.16460000      -0.02000000
C        0.04410000      -2.58770000      -0.05890000
C        0.77070000      -3.43050000      -1.12780000
C       -0.40470000      -4.45330000      -1.13060000
C       -1.12730000      -3.63560000      -0.05670000
C       -0.24870000      -3.44300000       1.14010000
O        0.69800000      -4.38810000       1.54810000
H        0.78510000       1.90830000      -0.60800000
H       -0.96530000       1.89520000      -0.36620000
H        0.12140000       1.88480000       1.02960000
H        0.85940000      -2.89420000      -2.07340000
H        1.75030000      -3.80790000      -0.82820000
H       -0.94220000      -4.46570000      -2.08030000
H       -0.15450000      -5.48110000      -0.85280000
H       -2.19370000      -3.44450000      -0.01510000
H       -0.71620000      -2.88940000       1.95450000
H        0.22490000      -5.14860000       1.90280000
