20
Properties=species:S:1:pos:R:3 gdb_39488=T pbc="F F F"
C       -0.31900000       1.41560000      -0.04560000
C        0.79940000       2.47870000      -0.00360000
C        1.83200000       2.22070000      -1.06550000
C        2.81710000       1.32580000      -0.97840000
C        3.21090000       0.46920000       0.17660000
N        2.93510000       0.90630000       1.56270000
C        2.31750000      -0.33190000       1.08220000
C        0.78990000      -0.43610000       1.02510000
O        0.15050000       0.08440000      -0.11870000
H       -0.97850000       1.54500000       0.82790000
H       -0.92900000       1.54370000      -0.94640000
H        0.33350000       3.46160000      -0.13930000
H        1.26950000       2.46380000       0.98100000
H        1.71340000       2.74940000      -2.00900000
H        3.45710000       1.18760000      -1.84730000
H        4.18190000       0.00100000       0.02030000
H        3.73150000       0.71380000       2.16310000
H        2.76650000      -1.25840000       1.44170000
H        0.54290000      -1.50450000       1.03640000
H        0.37380000       0.00680000       1.94340000
