18
Properties=species:S:1:pos:R:3 gdb_16776=T pbc="F F F"
O        0.13000000       1.11040000      -0.51160000
C       -0.07940000      -0.28040000      -0.29660000
C       -1.51070000      -0.46660000       0.20830000
C       -2.56400000      -0.04540000      -0.85580000
C       -3.01640000      -1.34180000      -1.49370000
O       -1.93320000      -2.18670000      -1.92040000
C       -2.57730000      -2.47380000      -0.66980000
C       -1.81840000      -1.95620000       0.53540000
H        0.96090000       1.21800000      -0.98270000
H        0.06000000      -0.85710000      -1.22000000
H        0.62390000      -0.66950000       0.45810000
H       -1.61220000       0.15330000       1.10390000
H       -3.42960000       0.43910000      -0.38860000
H       -2.14130000       0.66500000      -1.57130000
H       -3.90310000      -1.37840000      -2.12230000
H       -3.10880000      -3.42170000      -0.62900000
H       -0.90940000      -2.53490000       0.73390000
H       -2.45670000      -2.04440000       1.42240000
