18
Properties=species:S:1:pos:R:3 gdb_76360=T pbc="F F F"
C       -0.15520000       1.58170000       0.12780000
C        0.01320000       0.08050000       0.09480000
N        1.26900000      -0.59300000      -0.16510000
C        2.49090000       0.16770000      -0.39700000
C        0.71790000      -0.68030000       1.21530000
C        1.32330000       0.08020000       2.28190000
C        1.84260000       0.69390000       3.17650000
C        0.23160000      -1.98360000       1.60480000
C       -0.19790000      -3.05720000       1.93160000
H        0.61220000       2.07930000       0.72220000
H       -0.12950000       1.98820000      -0.88910000
H       -1.12880000       1.83160000       0.56050000
H       -0.83490000      -0.45080000      -0.33550000
H        2.62340000       1.04630000       0.24590000
H        3.34480000      -0.49800000      -0.24330000
H        2.49540000       0.49040000      -1.44260000
H        2.29350000       1.22880000       3.97560000
H       -0.56610000      -4.01090000       2.21830000
