21
Properties=species:S:1:pos:R:3 gdb_104845=T pbc="F F F"
C       -0.36370000       1.44030000      -0.02110000
C        0.22440000       0.04170000      -0.04420000
O        1.53490000      -0.00230000      -0.64960000
C        2.03810000      -0.86380000       0.39570000
C        0.76020000      -0.66420000       1.24190000
C        0.96460000       0.27320000       2.42570000
O        1.71380000      -0.42570000       3.42490000
C        0.03220000      -1.94980000       1.64760000
O        0.84440000      -2.83370000       2.39360000
H        0.28060000       2.15040000       0.50340000
H       -0.48410000       1.79660000      -1.04900000
H       -1.35180000       1.43910000       0.45170000
H       -0.46690000      -0.62370000      -0.58560000
H        2.18700000      -1.89410000       0.05120000
H        2.97440000      -0.48940000       0.82300000
H        1.50910000       1.17340000       2.11010000
H       -0.01120000       0.58890000       2.82590000
H        1.79380000       0.13480000       4.20190000
H       -0.89520000      -1.69040000       2.18990000
H       -0.26700000      -2.49670000       0.74610000
H        1.23200000      -2.30710000       3.10520000
