21
Properties=species:S:1:pos:R:3 gdb_69650=T pbc="F F F"
C       -0.03790000       1.57420000       0.01900000
C        0.04110000       0.07530000      -0.00360000
C       -0.87750000      -0.81390000       0.78690000
C        0.60900000      -0.90940000       1.02640000
C        1.25780000      -1.73770000      -0.07940000
C        2.77270000      -2.02430000      -0.03890000
O        2.55510000      -3.44800000      -0.05710000
C        1.12590000      -3.27330000      -0.15300000
C        0.67370000      -0.75230000      -1.13560000
H        0.92790000       2.03050000      -0.22740000
H       -0.77250000       1.94440000      -0.70680000
H       -0.33880000       1.93980000       1.00640000
H       -1.43840000      -0.31880000       1.57400000
H       -1.41360000      -1.63320000       0.31110000
H        1.04680000      -0.71670000       2.00030000
H        3.33800000      -1.68190000      -0.91700000
H        3.29660000      -1.69850000       0.86980000
H        0.59430000      -3.74460000       0.68380000
H        0.72930000      -3.66860000      -1.09800000
H       -0.01740000      -1.17150000      -1.87630000
H        1.46710000      -0.21520000      -1.66470000
