23
Properties=species:S:1:pos:R:3 gdb_92334=T pbc="F F F"
C        0.09660000       1.46680000      -0.09100000
C       -0.19330000       0.07000000       0.42400000
O       -0.09030000      -0.93030000      -0.61770000
C        0.61950000      -1.83970000       0.25450000
C        2.02540000      -2.15370000      -0.25440000
C        2.84490000      -0.89970000       0.10430000
C        2.26340000      -0.45980000       1.46570000
C        2.68770000       0.92490000       1.95870000
C        0.74880000      -0.74870000       1.35550000
H        1.08290000       1.54070000      -0.55380000
H       -0.64870000       1.72720000      -0.85040000
H        0.02680000       2.20320000       0.71600000
H       -1.21280000       0.06160000       0.84150000
H        0.01740000      -2.72840000       0.47630000
H        2.41530000      -3.03010000       0.27850000
H        2.02070000      -2.38820000      -1.32280000
H        3.92080000      -1.09230000       0.15490000
H        2.69010000      -0.12020000      -0.64940000
H        2.62780000      -1.18690000       2.20750000
H        2.44140000       1.71410000       1.24490000
H        2.20370000       1.17190000       2.91000000
H        3.77010000       0.95760000       2.12380000
H        0.30850000      -0.95960000       2.33210000
