18
Properties=species:S:1:pos:R:3 gdb_129873=T pbc="F F F"
N        0.48480000       1.42610000      -0.07220000
C        0.18120000       0.07000000      -0.03870000
C       -1.04750000      -0.56730000       0.02360000
C       -0.73970000      -1.93960000      -0.03630000
N        0.56440000      -2.16350000      -0.13580000
N        1.12310000      -0.91730000      -0.12020000
C        2.56760000      -0.81020000      -0.10340000
C        3.19160000      -0.36800000      -1.42270000
O        2.99500000       1.03730000      -1.56910000
H        1.43970000       1.63470000      -0.33390000
H        0.15870000       1.95330000       0.72450000
H       -2.01420000      -0.09340000       0.07040000
H       -1.42200000      -2.77790000      -0.02440000
H        2.87660000      -0.10950000       0.68210000
H        2.93380000      -1.80410000       0.15920000
H        4.26690000      -0.59960000      -1.40360000
H        2.73300000      -0.92740000      -2.24710000
H        2.98110000       1.25900000      -2.50380000
