18
Properties=species:S:1:pos:R:3 gdb_79536=T pbc="F F F"
O        0.08610000       1.38750000       0.10670000
C        0.03990000      -0.01470000       0.02810000
C       -1.34390000      -0.58480000      -0.28550000
C       -1.55940000      -0.25770000      -1.79220000
C       -1.93920000      -1.73190000      -1.95010000
N       -1.16310000      -2.05000000      -0.69670000
C        0.28690000      -2.09200000      -1.07650000
C        0.64650000      -0.61330000      -1.25420000
O       -0.21080000      -0.03770000      -2.26550000
H       -0.03260000       1.71190000      -0.79570000
H        0.47760000      -0.41870000       0.94410000
H       -2.15530000      -0.41610000       0.41910000
H       -2.19760000       0.54860000      -2.16080000
H       -3.00480000      -1.92390000      -1.78760000
H       -1.60230000      -2.24660000      -2.85450000
H        0.87490000      -2.54570000      -0.27030000
H        0.42700000      -2.68940000      -1.98030000
H        1.68090000      -0.36320000      -1.48980000
