22
Properties=species:S:1:pos:R:3 gdb_107794=T pbc="F F F"
C       -0.15480000       1.53070000       0.09320000
C       -0.00350000       0.00380000       0.04810000
C        0.69310000      -0.50840000      -1.19010000
C        0.09680000      -0.37600000      -2.60650000
N        0.81900000      -1.61940000      -3.02950000
C        2.13730000      -1.57030000      -2.29390000
C        0.91530000      -2.02340000      -1.59880000
C        2.23130000      -0.30170000      -1.44710000
C        2.80870000       0.98330000      -2.03110000
H        0.81770000       2.03130000       0.12050000
H       -0.69520000       1.90260000      -0.78390000
H       -0.71210000       1.84040000       0.98240000
H        0.53950000      -0.33860000       0.93880000
H       -0.99860000      -0.45770000       0.10460000
H       -0.97710000      -0.58510000      -2.62800000
H        0.30460000       0.52090000      -3.20050000
H        2.93670000      -2.15850000      -2.72680000
H        0.58860000      -2.97690000      -1.20410000
H        2.75980000      -0.55610000      -0.52000000
H        2.31110000       1.28240000      -2.95730000
H        2.73600000       1.81560000      -1.32350000
H        3.87070000       0.84460000      -2.26390000
