22
Properties=species:S:1:pos:R:3 gdb_111690=T pbc="F F F"
C       -0.89120000       1.57990000      -0.23930000
C       -0.32810000       0.18110000      -0.48590000
N        0.26630000      -0.33170000       0.74990000
C       -0.49380000      -1.07600000       1.74000000
C       -1.74500000      -1.81820000       1.29760000
O       -1.38340000      -2.55580000       0.13430000
C        0.01460000      -2.85430000       0.19130000
C        0.53430000      -3.08740000      -1.22040000
C        0.63330000      -1.71620000       0.99540000
H       -0.11480000       2.24690000       0.14590000
H       -1.29010000       2.00330000      -1.16650000
H       -1.70430000       1.55210000       0.49410000
H       -1.10520000      -0.47200000      -0.90140000
H        0.47850000       0.23720000      -1.22640000
H       -0.42730000      -0.74060000       2.77190000
H       -2.07780000      -2.48460000       2.11030000
H       -2.58540000      -1.16950000       1.02580000
H        0.17260000      -3.77700000       0.78000000
H        0.44170000      -2.18960000      -1.83520000
H        1.58850000      -3.37960000      -1.18840000
H       -0.02910000      -3.89330000      -1.69920000
H        1.61720000      -1.88190000       1.42860000
