20
Properties=species:S:1:pos:R:3 gdb_126896=T pbc="F F F"
C       -0.72460000       0.73970000      -0.52370000
C        0.45130000       0.11570000       0.23710000
N        1.43560000      -0.58030000      -0.59250000
C        1.05970000      -1.70370000      -1.31990000
C        1.50260000      -2.16080000      -2.55490000
C        2.47920000      -1.49340000      -3.47300000
C        0.82090000      -3.38870000      -2.72050000
N        0.02030000      -3.68450000      -1.70590000
N        0.18400000      -2.63330000      -0.85580000
H       -0.37150000       1.49080000      -1.23820000
H       -1.28100000      -0.02020000      -1.07990000
H       -1.41510000       1.23140000       0.16940000
H        0.99380000       0.88700000       0.79310000
H        0.08120000      -0.58580000       0.99480000
H        1.97820000       0.05450000      -1.16250000
H        2.25630000      -0.42660000      -3.60960000
H        3.51490000      -1.56210000      -3.11550000
H        2.45060000      -1.95270000      -4.46530000
H        0.88670000      -4.06470000      -3.56240000
H       -0.30070000      -2.64100000       0.02370000
