18
Properties=species:S:1:pos:R:3 gdb_51842=T pbc="F F F"
O       -0.03630000      -0.05720000       0.09620000
C       -0.03690000       1.12450000      -0.13770000
C        1.18960000       2.00940000      -0.06200000
C        1.35940000       2.87060000      -1.33380000
N        0.28440000       3.86110000      -1.48400000
C        0.80770000       5.14760000      -0.97210000
C        2.31470000       5.15610000      -1.27450000
C        2.68120000       3.67020000      -1.25120000
O        3.78120000       3.19320000      -1.16640000
H       -0.96530000       1.65750000      -0.43550000
H        1.06670000       2.67690000       0.80260000
H        2.07640000       1.39280000       0.10260000
H        1.40240000       2.20720000      -2.20420000
H        0.05690000       3.96480000      -2.46620000
H        0.26230000       5.97770000      -1.42470000
H        0.63670000       5.19990000       0.10990000
H        2.51380000       5.53490000      -2.28550000
H        2.93690000       5.72480000      -0.58020000
