18
Properties=species:S:1:pos:R:3 gdb_67672=T pbc="F F F"
C        0.07120000       1.54720000       0.11190000
C        0.06160000       0.05170000      -0.00610000
C       -0.97510000      -0.86410000       0.73100000
C       -1.56370000      -2.07480000       0.00470000
C       -0.29070000      -2.89680000      -0.36680000
N        0.83510000      -1.94140000      -0.20900000
C        0.47960000      -1.06670000       0.94370000
C        0.61530000      -0.80480000      -1.09950000
O        0.83980000      -0.69240000      -2.26830000
H        1.07480000       1.94840000      -0.06100000
H       -0.60050000       1.99960000      -0.62490000
H       -0.25590000       1.86910000       1.10540000
H       -1.56780000      -0.33430000       1.47000000
H       -2.23110000      -2.63350000       0.66790000
H       -2.14070000      -1.78850000      -0.87990000
H       -0.14130000      -3.73780000       0.31590000
H       -0.30020000      -3.27720000      -1.38990000
H        1.07060000      -1.03280000       1.84830000
