24
Properties=species:S:1:pos:R:3 gdb_118759=T pbc="F F F"
C       -0.16970000       1.50390000       0.15620000
C        0.01180000       0.00250000      -0.00230000
O       -1.27090000      -0.57400000      -0.17200000
C       -1.34870000      -1.98600000      -0.09340000
C       -0.53010000      -2.68120000      -1.17340000
C       -1.22860000      -2.53610000       1.36420000
N       -2.69670000      -2.50030000       1.47660000
C       -3.36570000      -3.58990000       2.14490000
C       -2.84710000      -2.36510000       0.01650000
H        0.80050000       1.99710000       0.26970000
H       -0.67090000       1.92170000      -0.72170000
H       -0.78110000       1.72530000       1.03530000
H        0.65580000      -0.21080000      -0.86910000
H        0.51230000      -0.41680000       0.88450000
H        0.54470000      -2.53310000      -1.02720000
H       -0.71760000      -3.75820000      -1.16540000
H       -0.79780000      -2.29030000      -2.16080000
H       -0.80570000      -3.55450000       1.38690000
H       -0.69830000      -1.91790000       2.09710000
H       -3.09520000      -3.59880000       3.20650000
H       -4.45120000      -3.45780000       2.07850000
H       -3.11740000      -4.58430000       1.72230000
H       -3.55340000      -1.59350000      -0.30580000
H       -3.07810000      -3.31320000      -0.49590000
