18
Properties=species:S:1:pos:R:3 gdb_29862=T pbc="F F F"
C       -0.09830000       1.49260000       0.00660000
N       -0.07650000       0.03670000      -0.01120000
C        0.04120000      -0.65170000      -1.18820000
C        0.15760000      -2.00080000      -1.22300000
C        0.17460000      -2.80350000      -0.00680000
O        0.27820000      -4.02980000       0.00410000
C        0.05050000      -2.01600000       1.23110000
C        0.04910000      -2.76580000       2.52920000
C       -0.06200000      -0.66600000       1.17170000
H        0.89930000       1.91060000       0.18670000
H       -0.46480000       1.86250000      -0.95260000
H       -0.77270000       1.84430000       0.79110000
H        0.03020000      -0.04090000      -2.08390000
H        0.23620000      -2.51410000      -2.17350000
H       -0.77090000      -3.49150000       2.54940000
H        0.96920000      -3.35070000       2.63160000
H       -0.04610000      -2.09730000       3.38950000
H       -0.15290000      -0.05540000       2.06400000
