19
Properties=species:S:1:pos:R:3 gdb_30725=T pbc="F F F"
C        0.29240000       1.55950000      -0.26180000
C       -0.09500000       0.11660000       0.10530000
C        0.54090000      -0.36710000       1.36240000
C        0.04760000      -0.87850000       2.52770000
N       -1.27570000      -1.17990000       2.91620000
C        1.18220000      -1.17760000       3.36270000
N        1.05550000      -1.66770000       4.67200000
C        2.28040000      -0.82300000       2.64330000
O        1.90740000      -0.33310000       1.42080000
H        1.37600000       1.64820000      -0.37390000
H       -0.17570000       1.86070000      -1.20410000
H       -0.02170000       2.25980000       0.51830000
H       -1.18300000       0.04380000       0.22170000
H        0.16400000      -0.54800000      -0.73090000
H       -1.95160000      -0.92590000       2.20600000
H       -1.52500000      -0.70320000       3.77770000
H        0.33460000      -2.38010000       4.72180000
H        1.92080000      -2.04550000       5.03630000
H        3.33830000      -0.84830000       2.84320000
