22
Properties=species:S:1:pos:R:3 gdb_15654=T pbc="F F F"
C        0.18030000       1.54240000       0.23210000
C        0.32430000       0.01790000       0.17890000
C        0.61020000      -0.52280000      -1.23930000
C        1.94800000      -0.04660000      -1.77160000
C        2.86280000      -1.01520000      -1.78080000
C        2.29510000      -2.32720000      -1.29660000
C        0.76500000      -2.07720000      -1.34360000
C       -0.04680000      -2.92290000      -0.36360000
H        1.10690000       2.04670000      -0.05980000
H       -0.61190000       1.88770000      -0.44240000
H       -0.07420000       1.87920000       1.24190000
H        1.12670000      -0.29690000       0.85820000
H       -0.59880000      -0.43910000       0.55480000
H       -0.21600000      -0.18860000      -1.88260000
H        2.13100000       0.98310000      -2.05900000
H        3.90050000      -0.89440000      -2.07300000
H        2.59240000      -3.18280000      -1.91430000
H        2.64130000      -2.55280000      -0.27640000
H        0.44220000      -2.33900000      -2.35920000
H        0.25070000      -2.74490000       0.67490000
H       -1.11970000      -2.71660000      -0.44440000
H        0.09800000      -3.98950000      -0.56710000
