16
Properties=species:S:1:pos:R:3 gdb_124809=T pbc="F F F"
C        0.24310000       1.49280000       0.13290000
C       -0.08490000      -0.00230000       0.00610000
O       -1.47910000      -0.23490000      -0.02730000
C        0.60420000      -0.59380000      -1.19250000
N       -0.08300000      -1.04480000      -2.20630000
O        0.92450000      -1.45680000      -3.11890000
C        2.08660000      -1.19560000      -2.51030000
N        3.22700000      -1.45990000      -3.19260000
N        1.96990000      -0.66490000      -1.32260000
H        1.32210000       1.64860000       0.21630000
H       -0.12290000       2.03750000      -0.74340000
H       -0.24890000       1.89430000       1.02210000
H        0.29940000      -0.51940000       0.89480000
H       -1.75520000      -0.25180000      -0.95130000
H        3.16700000      -2.12380000      -3.94770000
H        4.06690000      -1.49080000      -2.63770000
