15
Properties=species:S:1:pos:R:3 gdb_33916=T pbc="F F F"
N        0.01580000      -1.15990000      -0.10120000
C        0.05140000      -0.00580000      -0.02790000
C        0.06240000       1.41160000       0.14360000
O        0.23530000       2.24640000      -1.00260000
C        1.16510000       2.40970000       0.06000000
C        0.51890000       3.29020000       1.15460000
C       -0.56520000       4.31770000       0.71420000
N       -1.60730000       3.24770000       0.74190000
C       -0.64390000       2.26690000       1.25840000
H        2.21410000       2.26360000      -0.17090000
H        1.15510000       3.52640000       2.00540000
H       -0.71480000       5.11120000       1.45400000
H       -0.43460000       4.76350000      -0.27530000
H       -2.38420000       3.43090000       1.36370000
H       -0.87910000       1.71890000       2.17150000
