18
Properties=species:S:1:pos:R:3 gdb_34496=T pbc="F F F"
N        0.01590000      -1.14150000      -0.01310000
C       -0.02330000       0.01680000       0.01290000
C       -0.02930000       1.43530000       0.05050000
C       -1.12060000       2.21430000      -0.01550000
C       -0.77500000       3.64930000       0.02080000
C       -1.44030000       4.61710000      -0.94800000
C       -1.75000000       4.69370000       0.51900000
C        0.72630000       3.70330000       0.34760000
C        1.24820000       2.25860000       0.12110000
H       -2.13750000       1.85050000      -0.10810000
H       -0.80990000       5.38570000      -1.38280000
H       -2.19990000       4.22890000      -1.61780000
H       -2.72550000       4.36300000       0.85960000
H       -1.33510000       5.51910000       1.08860000
H        1.26100000       4.43570000      -0.26230000
H        0.86580000       3.98810000       1.39540000
H        1.91310000       1.92160000       0.92180000
H        1.81110000       2.16090000      -0.81500000
