16
Properties=species:S:1:pos:R:3 gdb_37835=T pbc="F F F"
C        0.01700000       1.47240000      -0.19260000
O        1.38210000       1.86320000       0.08360000
C        2.00600000       0.95540000       1.02020000
C        1.11630000      -0.26130000       1.03940000
O        0.13930000      -0.49620000       2.10540000
C       -0.46790000      -1.10780000       0.93410000
C        0.88030000      -1.63870000       0.33090000
N        0.59090000      -1.04230000      -1.01770000
C        0.05010000      -0.02220000      -0.05510000
H       -0.67380000       1.90660000       0.54310000
H       -0.22800000       1.84750000      -1.18840000
H        3.02390000       0.76490000       0.66850000
H        2.05250000       1.39730000       2.02360000
H       -1.43830000      -1.59250000       1.03270000
H        1.37040000      -2.60240000       0.47570000
H        1.46160000      -0.69920000      -1.43250000
