16
Properties=species:S:1:pos:R:3 gdb_39783=T pbc="F F F"
C        0.00620000       1.47750000       0.00920000
O        1.24070000       0.72020000      -0.00740000
C        0.03940000       0.02490000       0.00190000
C       -0.53500000      -0.97840000       1.01580000
N       -1.67120000      -1.07750000       0.01460000
C       -0.55630000      -0.96870000      -1.00940000
C        0.28030000      -2.24890000      -0.74470000
O        1.50300000      -2.04210000      -0.02350000
C        0.29580000      -2.25590000       0.72130000
H       -0.19590000       2.01330000       0.93470000
H       -0.21530000       2.02210000      -0.90670000
H       -0.78500000      -0.73050000       2.04630000
H       -2.08070000      -2.01400000       0.01440000
H       -0.82790000      -0.71090000      -2.03190000
H        0.23370000      -3.12330000      -1.38550000
H        0.26260000      -3.13650000       1.35450000
