16
Properties=species:S:1:pos:R:3 gdb_23159=T pbc="F F F"
O       -0.15100000       1.39600000       0.51100000
N       -0.05390000      -0.00060000       0.61770000
C       -1.01180000      -0.57010000       0.02050000
C       -2.27680000      -0.15370000      -0.69220000
C       -2.81040000      -1.60460000      -0.45390000
O       -3.44900000      -2.28250000      -1.48470000
C       -1.33900000      -2.06070000      -0.03780000
C       -0.67100000      -2.77800000      -1.10720000
C       -0.19440000      -3.35940000      -2.04750000
H        0.61450000       1.69220000       1.01560000
H       -2.83750000       0.67860000      -0.26200000
H       -2.10960000       0.04630000      -1.75660000
H       -3.46870000      -1.64420000       0.41710000
H       -2.77840000      -2.53780000      -2.13310000
H       -1.26030000      -2.60140000       0.90930000
H        0.27240000      -3.87870000      -2.84810000
