14
Properties=species:S:1:pos:R:3 gdb_123967=T pbc="F F F"
C       -0.00130000       1.53900000      -0.04140000
N        1.37060000       2.06070000       0.03850000
C        2.36230000       1.28740000       0.24750000
N        2.34520000      -0.08420000       0.43650000
C        1.12370000      -0.70230000       0.21860000
C       -0.00520000       0.04150000      -0.00560000
N       -0.95250000      -0.91260000      -0.17520000
N       -0.43810000      -2.15470000      -0.06130000
N        0.84430000      -2.02390000       0.18200000
H       -0.58510000       1.96940000       0.78690000
H       -0.46530000       1.92670000      -0.95970000
H        3.35840000       1.72420000       0.30540000
H        3.19710000      -0.61930000       0.40510000
H       -1.93820000      -0.81180000      -0.35840000
