14
Properties=species:S:1:pos:R:3 gdb_23216=T pbc="F F F"
O       -0.07310000       1.29300000       0.02900000
N        0.01720000      -0.08810000      -0.02000000
C       -1.11830000      -0.65950000      -0.00620000
C       -1.34470000      -2.15340000       0.00440000
C       -2.45580000      -2.35820000      -1.05640000
C       -3.23300000      -1.58580000       0.03550000
O       -2.38690000      -2.23360000       1.04620000
C       -2.56640000      -0.18990000       0.01180000
O       -3.05360000       0.90430000       0.01310000
H        0.85260000       1.56370000       0.01870000
H       -0.49420000      -2.81590000       0.14470000
H       -2.33160000      -1.91120000      -2.04580000
H       -2.77680000      -3.39920000      -1.11710000
H       -4.30460000      -1.64830000       0.20830000
