18
Properties=species:S:1:pos:R:3 gdb_54987=T pbc="F F F"
N       -0.04050000       1.24030000       0.34880000
C       -0.00820000       0.00710000      -0.23320000
O        1.00260000      -0.44750000      -0.74370000
C       -1.29190000      -0.75960000      -0.18370000
C       -1.56150000      -1.72110000      -1.33370000
C       -1.19150000      -2.25800000      -0.00300000
C        0.02440000      -3.08090000       0.40700000
O       -0.80270000      -3.88210000       1.28970000
C       -1.99070000      -3.14250000       0.94810000
H        0.79610000       1.79950000       0.32530000
H       -0.87920000       1.63540000       0.73450000
H       -2.14960000      -0.26990000       0.26900000
H       -2.58810000      -1.81980000      -1.67100000
H       -0.80260000      -1.74430000      -2.10870000
H        0.47890000      -3.68210000      -0.38900000
H        0.81140000      -2.54600000       0.94750000
H       -2.43120000      -2.63920000       1.81990000
H       -2.75430000      -3.77700000       0.47770000
