20
Properties=species:S:1:pos:R:3 gdb_22677=T pbc="F F F"
O       -0.20380000       1.49200000      -0.02030000
C       -0.06230000       0.08390000      -0.14290000
C       -1.41130000      -0.55320000       0.14140000
C       -1.41230000      -2.09250000       0.02750000
C       -2.68610000      -2.53540000       0.77510000
C       -2.93970000      -1.42110000       1.77040000
C       -1.94500000      -0.30050000       1.56720000
N       -3.85810000      -1.35440000       2.64760000
O       -4.65500000      -2.51850000       2.63250000
H        0.65350000       1.89740000      -0.17860000
H        0.27590000      -0.19610000      -1.15390000
H        0.68260000      -0.30560000       0.57200000
H       -2.13400000      -0.14410000      -0.57710000
H       -1.38200000      -2.44230000      -1.00800000
H       -0.52430000      -2.49570000       0.53160000
H       -3.54850000      -2.61390000       0.10160000
H       -2.59840000      -3.50720000       1.26900000
H       -1.12020000      -0.40130000       2.28810000
H       -2.38030000       0.68850000       1.71240000
H       -5.29890000      -2.32900000       3.32270000
