15
Properties=species:S:1:pos:R:3 gdb_32555=T pbc="F F F"
C        0.04690000       1.38890000       0.00720000
O       -0.01540000      -0.02550000       0.00320000
C       -1.23330000      -0.59910000       0.01080000
C       -2.40890000       0.07130000       0.02220000
O       -3.62260000      -0.54920000       0.02950000
C       -3.65210000      -1.89260000       0.02500000
C       -2.54980000      -2.66230000       0.01380000
C       -1.20960000      -2.08350000       0.00590000
O       -0.17520000      -2.72910000      -0.00530000
H        1.10610000       1.64760000      -0.00020000
H       -0.43800000       1.81350000      -0.88220000
H       -0.42410000       1.80780000       0.90670000
H       -2.52340000       1.14470000       0.02660000
H       -4.67000000      -2.26240000       0.03140000
H       -2.64080000      -3.74130000       0.01050000
