17
Properties=species:S:1:pos:R:3 gdb_29927=T pbc="F F F"
C       -0.04080000       1.44150000       0.06140000
N        0.00820000      -0.00600000       0.03870000
C        0.05230000      -0.81150000      -1.05140000
N        0.09040000      -2.09000000      -0.73760000
C        0.07060000      -2.13530000       0.63110000
C        0.10200000      -3.42080000       1.38740000
C        0.01930000      -0.84820000       1.14690000
C       -0.01750000      -0.36860000       2.46750000
C       -0.04910000       0.04670000       3.59980000
H        0.82540000       1.85030000       0.58930000
H       -0.03710000       1.80880000      -0.96630000
H       -0.94850000       1.79070000       0.56160000
H        0.05430000      -0.40670000      -2.05350000
H        1.00630000      -3.99120000       1.15000000
H        0.07890000      -3.23870000       2.46450000
H       -0.75410000      -4.05050000       1.12240000
H       -0.07660000       0.40210000       4.59970000
