27
Properties=species:S:1:pos:R:3 gdb_118840=T pbc="F F F"
C        0.18920000       1.58830000      -0.12010000
C        0.29210000       0.06050000      -0.12630000
C        0.40210000      -0.53130000       1.28740000
C        0.58260000      -2.04370000       1.32570000
C       -0.58740000      -2.83720000       0.76670000
C        1.96940000      -2.60980000       1.09710000
C        1.33850000      -2.69250000       2.47030000
C        1.92540000      -1.95360000       3.65740000
C        3.01290000      -2.77030000       4.36670000
H        1.06670000       2.04310000       0.35370000
H        0.11460000       1.98900000      -1.13600000
H       -0.69400000       1.92410000       0.43510000
H       -0.58180000      -0.35690000      -0.64010000
H        1.16710000      -0.24920000      -0.71210000
H        1.24120000      -0.04430000       1.79620000
H       -0.49670000      -0.25970000       1.86040000
H       -0.75280000      -2.62790000      -0.29570000
H       -0.41460000      -3.91360000       0.86350000
H       -1.51610000      -2.60010000       1.30030000
H        2.07660000      -3.51470000       0.50720000
H        2.78490000      -1.90290000       0.96870000
H        0.96120000      -3.67840000       2.73940000
H        2.35020000      -0.99570000       3.33850000
H        1.12810000      -1.71090000       4.37290000
H        3.83750000      -3.00130000       3.68420000
H        3.42400000      -2.22650000       5.22310000
H        2.61420000      -3.72170000       4.73590000
