20
Properties=species:S:1:pos:R:3 gdb_19479=T pbc="F F F"
C        0.19180000       1.31190000       0.12690000
O       -0.26600000       0.03400000      -0.25360000
C        0.50630000      -0.55530000      -1.26750000
C        1.83840000      -1.24610000      -0.81430000
C        0.93210000      -2.40120000      -0.29480000
C        0.07250000      -2.02020000      -1.53790000
C        1.00180000      -2.39970000      -2.70470000
C        2.34600000      -1.80250000      -2.15660000
H        1.20110000       1.28060000       0.56290000
H        0.20920000       2.00600000      -0.72830000
H       -0.50380000       1.69560000       0.87720000
H        0.57430000       0.12220000      -2.13470000
H        2.56220000      -0.74230000      -0.17260000
H        1.35900000      -3.40790000      -0.25630000
H        0.43670000      -2.15450000       0.64300000
H       -0.98310000      -2.28010000      -1.61670000
H        1.05210000      -3.48150000      -2.85470000
H        0.69510000      -1.94390000      -3.65080000
H        2.75230000      -1.02150000      -2.80680000
H        3.12160000      -2.56160000      -2.02260000
