16
Properties=species:S:1:pos:R:3 gdb_43014=T pbc="F F F"
O        0.01830000       0.63910000      -1.31920000
C       -0.03950000       1.28760000      -0.29620000
C       -1.34160000       1.75030000       0.26820000
C       -1.62740000       1.63940000       1.74490000
N       -1.40570000       2.93640000       1.13900000
C       -0.17800000       3.68130000       1.41900000
C        1.14630000       2.96920000       1.22500000
O        1.28990000       1.68230000       1.81200000
C        1.21950000       1.76060000       0.37520000
H       -2.16290000       1.63930000      -0.43450000
H       -2.65480000       1.44280000       2.04130000
H       -0.85920000       1.20750000       2.37470000
H       -0.17280000       4.56520000       0.76800000
H       -0.24410000       4.04850000       2.45000000
H        2.03310000       3.60160000       1.29670000
H        2.13470000       1.49670000      -0.14950000
