19
Properties=species:S:1:pos:R:3 gdb_36638=T pbc="F F F"
C       -0.12790000      -1.25810000      -0.27800000
C       -0.08240000      -0.06430000      -0.14490000
C        0.01010000       1.38170000       0.01110000
C        1.44860000       1.91530000      -0.17460000
C        1.50620000       3.43030000      -0.05430000
C        1.48100000       4.19740000       1.30440000
C        2.93700000       3.76580000       1.60200000
C        2.82880000       4.22930000       0.12930000
O        2.01690000       5.38030000       0.59170000
H       -0.18260000      -2.31190000      -0.39480000
H       -0.65610000       1.87180000      -0.71080000
H       -0.36010000       1.66660000       1.00450000
H        2.10370000       1.42180000       0.54840000
H        1.80660000       1.62030000      -1.16790000
H        0.85500000       3.91730000      -0.78700000
H        0.65350000       4.36440000       1.99520000
H        3.48680000       4.44680000       2.25210000
H        3.14970000       2.71700000       1.81570000
H        3.61900000       4.43200000      -0.59470000
