19
Properties=species:S:1:pos:R:3 gdb_84791=T pbc="F F F"
O        0.06790000       1.50550000       0.66630000
C       -0.01470000       0.21240000       0.06300000
C        0.80840000      -0.80380000       0.81660000
C        0.03790000      -1.65170000       1.49890000
C       -1.43270000      -1.40270000       1.26430000
C       -1.44270000      -0.41010000       0.08350000
C       -2.61030000       0.57970000      -0.09810000
O       -2.86410000       0.11440000      -1.44130000
C       -1.91210000      -0.95320000      -1.29070000
H        0.03160000       1.38120000       1.62150000
H        0.32350000       0.37680000      -0.96540000
H        1.89140000      -0.76370000       0.84180000
H        0.39870000      -2.42940000       2.16380000
H       -1.98650000      -2.32010000       1.03310000
H       -1.90940000      -0.98400000       2.16250000
H       -3.46950000       0.40010000       0.56330000
H       -2.33640000       1.63880000      -0.06530000
H       -1.16720000      -0.96120000      -2.09690000
H       -2.40110000      -1.93700000      -1.24920000
