21
Properties=species:S:1:pos:R:3 gdb_119774=T pbc="F F F"
C        0.12160000       1.44490000       0.10520000
C       -0.16750000      -0.03350000      -0.13740000
N        0.63180000      -0.53480000      -1.24920000
C        0.83010000      -1.86340000      -1.48090000
N        1.14590000      -2.39170000      -2.60050000
C        1.37660000      -3.81720000      -2.33980000
C        2.81970000      -4.22100000      -2.65010000
C        0.99280000      -3.99560000      -0.84060000
O        0.71370000      -2.65840000      -0.37890000
H        1.17930000       1.60200000       0.33470000
H       -0.12760000       2.04800000      -0.77550000
H       -0.47740000       1.81800000       0.94080000
H        0.08970000      -0.62170000       0.74560000
H       -1.24480000      -0.17840000      -0.31570000
H        0.59290000      -0.00190000      -2.10570000
H        0.70740000      -4.41240000      -2.97450000
H        3.51960000      -3.66370000      -2.01810000
H        2.97540000      -5.29240000      -2.47890000
H        3.05720000      -3.99950000      -3.69400000
H        0.09630000      -4.60480000      -0.68980000
H        1.80580000      -4.40390000      -0.23200000
