18
Properties=species:S:1:pos:R:3 gdb_7518=T pbc="F F F"
C       -0.00500000       1.42640000      -0.30830000
C        0.05840000      -0.03130000       0.07980000
N        1.38150000      -0.68260000       0.08070000
C        0.64760000      -0.55290000       1.34890000
C        1.27850000       0.34540000       2.39230000
C       -0.01180000      -1.80980000       1.92400000
C        0.94810000      -2.71870000       2.55620000
N        1.71330000      -3.43060000       3.04900000
H        0.85680000       1.98020000       0.06820000
H       -0.01220000       1.52560000      -1.39890000
H       -0.91720000       1.89370000       0.07790000
H       -0.77120000      -0.62130000      -0.31230000
H        1.33080000      -1.63030000      -0.28490000
H        1.80260000       1.17850000       1.92370000
H        0.52170000       0.74600000       3.07610000
H        2.00850000      -0.21500000       2.98580000
H       -0.76480000      -1.53260000       2.67200000
H       -0.53760000      -2.35980000       1.13550000
