17
Properties=species:S:1:pos:R:3 gdb_51706=T pbc="F F F"
O       -0.24880000       0.41490000       0.67670000
C        0.29970000       0.84020000      -0.30730000
C        1.45760000       1.82120000      -0.26980000
C        1.20080000       3.07810000      -1.11330000
C        2.40300000       4.04760000      -1.17260000
C        3.11370000       3.63070000      -2.46260000
C        2.01790000       2.96750000      -3.29000000
O        2.02230000       2.68800000      -4.45100000
O        0.94890000       2.69910000      -2.48180000
H       -0.01650000       0.53370000      -1.32620000
H        1.64270000       2.09720000       0.77230000
H        2.35000000       1.30980000      -0.65790000
H        0.29480000       3.57760000      -0.75940000
H        2.04370000       5.07740000      -1.24900000
H        3.02880000       3.97660000      -0.28110000
H        3.56060000       4.45170000      -3.02430000
H        3.90140000       2.88890000      -2.29110000
