19
Properties=species:S:1:pos:R:3 gdb_2103=T pbc="F F F"
C       -0.01330000       1.52650000       0.06330000
C        0.02860000       0.00750000      -0.01170000
C        0.71040000      -0.51720000      -1.28250000
C        0.83010000      -2.04750000      -1.24690000
C        1.48560000      -2.49410000       0.06690000
C        0.75790000      -1.85960000       1.25360000
O        0.71360000      -0.44700000       1.15230000
H        1.00150000       1.93640000       0.04600000
H       -0.56930000       1.93910000      -0.78410000
H       -0.49650000       1.84980000       0.98920000
H       -1.00510000      -0.38600000       0.01360000
H        0.14600000      -0.19110000      -2.16390000
H        1.70920000      -0.06640000      -1.35100000
H       -0.17250000      -2.49130000      -1.32030000
H        1.39740000      -2.41160000      -2.11010000
H        1.47280000      -3.58590000       0.16440000
H        2.53540000      -2.17600000       0.08570000
H       -0.26780000      -2.26510000       1.32010000
H        1.26480000      -2.08110000       2.19780000
