18
Properties=species:S:1:pos:R:3 gdb_94505=T pbc="F F F"
C       -0.20530000       1.40550000      -0.17080000
N       -0.13090000      -0.01790000       0.07200000
C       -1.29180000      -0.71190000       0.66330000
C       -0.31520000      -1.60810000       1.45870000
C        0.74120000      -0.49830000       1.16660000
C        2.09530000      -0.87500000       0.80900000
C        3.22620000      -1.20330000       0.53510000
C        4.56530000      -1.57510000       0.16350000
O        5.32020000      -2.21540000       0.85970000
H        0.76760000       1.77150000      -0.51440000
H       -0.93760000       1.60640000      -0.95930000
H       -0.49700000       1.98510000       0.72580000
H       -1.88860000      -0.06560000       1.32840000
H       -1.95890000      -1.18810000      -0.06130000
H       -0.53660000      -1.80200000       2.50720000
H       -0.07770000      -2.54030000       0.94610000
H        0.78440000       0.21260000       2.01210000
H        4.86780000      -1.22040000      -0.84320000
