19
Properties=species:S:1:pos:R:3 gdb_38262=T pbc="F F F"
C       -0.05740000       1.59180000       0.09990000
C        1.44640000       1.22920000      -0.01990000
C        1.17160000       0.07450000       1.01430000
C       -0.01150000       0.02980000       0.01030000
C       -1.17270000      -0.84820000      -0.36390000
O       -1.58550000      -0.41070000      -1.67000000
C       -0.54580000      -0.38000000      -2.61730000
O        0.47760000       0.56150000      -2.33360000
C        1.05110000       0.19140000      -1.09870000
H       -0.38170000       2.00450000       1.05880000
H       -0.50420000       2.11130000      -0.74530000
H        2.29950000       1.90790000      -0.02440000
H        1.86220000      -0.77400000       1.00780000
H        0.94440000       0.39880000       2.03200000
H       -0.87890000      -1.91010000      -0.39230000
H       -2.04990000      -0.74460000       0.28060000
H       -0.09650000      -1.38680000      -2.71170000
H       -0.99790000      -0.07640000      -3.56270000
H        1.74810000      -0.64810000      -1.23680000
