12
Properties=species:S:1:pos:R:3 gdb_23754=T pbc="F F F"
O        0.10320000       1.34750000       0.10320000
C        0.07220000       0.00260000       0.04470000
N        0.08900000      -0.58780000      -1.13780000
C        0.05780000      -1.92760000      -1.18620000
C        0.00870000      -2.72590000      -0.05550000
C       -0.00910000      -2.10040000       1.19570000
C        0.02300000      -0.72460000       1.24480000
F        0.00810000      -0.07260000       2.40680000
H        0.13470000       1.65000000      -0.81530000
H        0.07340000      -2.36680000      -2.17940000
H       -0.01520000      -3.80550000      -0.13860000
H       -0.04710000      -2.66340000       2.12140000
