19
Properties=species:S:1:pos:R:3 gdb_72267=T pbc="F F F"
C        0.05380000       1.50880000      -0.09340000
C       -0.05510000       0.01380000      -0.03780000
O        0.38470000      -0.67240000      -1.22050000
C       -0.49130000      -1.79180000      -0.86780000
C        0.33350000      -2.81100000      -0.08660000
C        1.16510000      -2.00740000       0.94920000
C        0.35910000      -0.75710000       1.28510000
O       -1.03490000      -1.15560000       1.49810000
C       -1.29450000      -0.86740000       0.12270000
H        1.10530000       1.81450000      -0.13340000
H       -0.44960000       1.90010000      -0.98200000
H       -0.39890000       1.95630000       0.79660000
H       -1.00840000      -2.18740000      -1.74480000
H       -0.33710000      -3.51370000       0.41700000
H        0.97830000      -3.38270000      -0.75960000
H        1.35700000      -2.59650000       1.85030000
H        2.13100000      -1.71390000       0.52660000
H        0.74250000      -0.17050000       2.12410000
H       -2.33400000      -0.61980000      -0.09820000
