16
Properties=species:S:1:pos:R:3 gdb_43958=T pbc="F F F"
O       -0.31820000       0.02090000      -0.65520000
C       -0.12260000       1.08410000      -0.18520000
O       -1.09500000       2.02720000       0.25290000
C       -0.01520000       2.72940000       0.98890000
C        0.94030000       3.97810000       1.03780000
N        2.05330000       2.88590000       1.03630000
C        1.79170000       2.24660000       2.36380000
C        0.24420000       2.10900000       2.37830000
C        1.00660000       2.15360000       0.10960000
H        0.98820000       4.57410000       0.12900000
H        0.94620000       4.60120000       1.93560000
H        2.31000000       1.28730000       2.40990000
H        2.18810000       2.89210000       3.15110000
H       -0.24780000       2.66500000       3.18000000
H       -0.09370000       1.07090000       2.42520000
H        1.08440000       2.68180000      -0.84460000
