16
Properties=species:S:1:pos:R:3 gdb_93997=T pbc="F F F"
O        0.05590000       1.38380000       0.27670000
C       -0.00150000       0.00650000       0.08460000
C       -1.41660000      -0.52700000      -0.11310000
N       -1.17230000      -1.78160000      -0.93760000
H       -1.01120000      -2.57140000      -0.30360000
H       -1.99250000      -2.02770000      -1.49500000
C        0.00640000      -1.48390000      -1.81060000
C        0.11320000      -2.22760000      -3.01990000
O        0.97960000      -2.14380000      -3.86830000
C        0.69130000      -0.37980000      -1.25430000
O        1.62440000       0.30710000      -1.64880000
H        0.78880000       1.65950000      -0.30690000
H        0.48930000      -0.53460000       0.91420000
H       -1.97440000      -0.79110000       0.78750000
H       -1.98890000       0.16530000      -0.73240000
H       -0.73890000      -2.95780000      -3.15350000
