21
Properties=species:S:1:pos:R:3 gdb_108867=T pbc="F F F"
C       -0.10180000       1.55850000      -0.05150000
C       -0.01460000       0.02610000      -0.02350000
C        0.76100000      -0.50700000      -1.23330000
O        1.02620000      -1.89380000      -1.11340000
C        1.89450000      -2.18180000      -0.03850000
C        1.52680000      -1.46850000       1.24140000
C        2.22570000      -1.96070000       2.47790000
O        1.93070000      -1.12390000       3.57970000
C        0.63870000      -0.47620000       1.24020000
H        0.89530000       2.00970000      -0.00080000
H       -0.58790000       1.91120000      -0.96770000
H       -0.67970000       1.93230000       0.79960000
H       -1.03920000      -0.37240000      -0.07340000
H        0.18960000      -0.38390000      -2.15830000
H        1.70510000       0.05560000      -1.33980000
H        1.85220000      -3.26980000       0.10180000
H        2.94010000      -1.93950000      -0.31050000
H        1.91530000      -3.00280000       2.67420000
H        3.31370000      -1.99830000       2.28520000
H        2.31020000      -1.52330000       4.36710000
H        0.38000000       0.00860000       2.17680000
