21
Properties=species:S:1:pos:R:3 gdb_3974=T pbc="F F F"
C       -1.42940000      -0.86800000      -0.07710000
C        0.07440000      -0.67940000       0.15990000
C        0.60790000      -1.70930000       1.16370000
C        0.83990000      -0.74690000      -1.18310000
C        2.29460000      -0.37000000      -1.08450000
C        2.68380000       1.04530000      -0.74560000
N        3.14250000      -1.30180000      -1.30790000
O        4.46590000      -0.83830000      -1.18200000
H       -1.82780000      -0.10670000      -0.75630000
H       -1.63430000      -1.84990000      -0.52000000
H       -1.98780000      -0.80560000       0.86270000
H        0.22390000       0.32270000       0.58610000
H        0.44820000      -2.72900000       0.79350000
H        1.68100000      -1.58880000       1.33680000
H        0.09490000      -1.61970000       2.12690000
H        0.76990000      -1.76020000      -1.59240000
H        0.35300000      -0.06940000      -1.89850000
H        3.17250000       1.09030000       0.23380000
H        3.41240000       1.41920000      -1.47090000
H        1.81500000       1.70650000      -0.73250000
H        4.97430000      -1.62600000      -1.40060000
