23
Properties=species:S:1:pos:R:3 gdb_64195=T pbc="F F F"
C       -0.11820000       1.49670000       0.07640000
C       -0.02880000      -0.03080000      -0.01690000
C       -1.39690000      -0.62500000      -0.33700000
C        1.14750000      -0.47870000      -0.94170000
C        2.03280000      -0.68470000       0.31340000
C        0.76360000      -0.63990000       1.19670000
C        0.77630000      -0.05260000       2.62040000
O        0.42930000      -1.32230000       3.20730000
C        0.31050000      -1.93580000       1.90910000
H        0.84990000       1.94920000       0.31680000
H       -0.45180000       1.91700000      -0.87900000
H       -0.83350000       1.81140000       0.84410000
H       -1.78500000      -0.20570000      -1.27260000
H       -1.35190000      -1.71180000      -0.45850000
H       -2.12750000      -0.40450000       0.45040000
H        0.92880000      -1.42030000      -1.45390000
H        1.49100000       0.24640000      -1.68440000
H        2.62840000      -1.60030000       0.36310000
H        2.69680000       0.16380000       0.50500000
H        1.74990000       0.31360000       2.97310000
H        0.01590000       0.71290000       2.82680000
H       -0.71830000      -2.26120000       1.70980000
H        0.98230000      -2.79750000       1.79740000
