21
Properties=species:S:1:pos:R:3 gdb_103880=T pbc="F F F"
C       -0.13100000       1.40600000       0.25100000
C        0.22950000      -0.08110000       0.12630000
C        0.75890000      -0.50090000      -1.24090000
C        2.03720000       0.18810000      -1.68180000
C        0.51450000      -1.90570000      -1.68880000
N       -0.14910000      -0.79280000      -2.36840000
C       -1.59190000      -0.67410000      -2.21390000
C       -2.27730000      -1.49090000      -3.22390000
N       -2.82920000      -2.14020000      -4.00340000
H        0.73960000       2.04830000       0.09240000
H       -0.89520000       1.70000000      -0.47580000
H       -0.52230000       1.62230000       1.24940000
H        1.00230000      -0.32740000       0.86550000
H       -0.63670000      -0.69250000       0.39910000
H        2.83420000       0.02960000      -0.94650000
H        2.36750000      -0.20550000      -2.64540000
H        1.89150000       1.26680000      -1.79520000
H        1.25330000      -2.44300000      -2.27760000
H       -0.09190000      -2.53760000      -1.04050000
H       -1.98140000      -0.97750000      -1.22890000
H       -1.88160000       0.37200000      -2.36640000
