13
Properties=species:S:1:pos:R:3 gdb_129006=T pbc="F F F"
N        0.00950000       1.34000000       0.00950000
N        1.11800000       2.06990000       0.00260000
C        2.26250000       1.39370000      -0.01210000
N        2.43550000       0.05540000      -0.02090000
C        1.32810000      -0.65380000      -0.01390000
C        1.03650000      -2.03570000      -0.01870000
N       -0.28390000      -2.22700000      -0.00660000
C       -0.94100000      -1.01950000       0.00630000
C       -0.01160000      -0.00640000       0.00250000
H       -0.84200000       1.88850000       0.02070000
H        3.15070000       2.01370000      -0.01740000
H        1.73720000      -2.85730000      -0.03020000
H       -2.01920000      -0.97060000       0.01720000
