18
Properties=species:S:1:pos:R:3 gdb_12858=T pbc="F F F"
C       -0.10030000       1.53130000       0.00180000
C       -0.00910000       0.01550000      -0.02200000
C       -1.23050000      -0.82150000       0.41630000
O       -0.41270000      -1.63100000       1.28840000
C        0.71110000      -0.73240000       1.12820000
C        1.96030000      -1.37050000       0.50550000
O        2.06100000      -0.82270000      -0.80590000
C        0.73990000      -0.54930000      -1.25040000
H        0.88800000       1.97900000      -0.14840000
H       -0.75700000       1.90050000      -0.79430000
H       -0.49510000       1.89490000       0.95600000
H       -1.98020000      -0.25180000       0.98150000
H       -1.73630000      -1.41790000      -0.35250000
H        0.90820000      -0.17260000       2.04970000
H        2.88780000      -1.13370000       1.03390000
H        1.82710000      -2.46250000       0.48020000
H        0.25410000      -1.46860000      -1.61530000
H        0.81070000       0.15950000      -2.08010000
