16
Properties=species:S:1:pos:R:3 gdb_67255=T pbc="F F F"
O       -0.10780000       1.42360000       0.00630000
C        0.01500000       0.06760000       0.02510000
C        0.06730000      -1.00470000      -1.00920000
N        1.27740000      -1.61440000      -0.44610000
C        0.91510000      -0.97240000       0.85280000
C       -0.41210000      -1.62530000       1.28180000
C       -0.69270000      -2.80230000       2.10120000
O       -0.92670000      -1.46240000       2.58710000
C       -1.06480000      -0.99170000       0.08040000
H        0.66640000       1.79540000      -0.43330000
H       -0.15980000      -0.98030000      -2.06780000
H        1.23330000      -2.63450000      -0.39090000
H        1.70850000      -0.77530000       1.57160000
H       -1.59170000      -3.39050000       1.92190000
H        0.12030000      -3.33640000       2.59240000
H       -2.11250000      -0.90340000      -0.17270000
