23
Properties=species:S:1:pos:R:3 gdb_40936=T pbc="F F F"
C        0.10700000       1.36580000      -0.58610000
C        1.37310000       1.65280000       0.26370000
C        1.32640000       0.18010000       0.79550000
C       -0.13080000       0.08120000       0.25180000
C        2.30300000      -0.74090000       0.04980000
C        3.76550000      -0.44370000       0.41520000
C        3.94970000      -0.24990000       1.89680000
C        2.93470000      -0.06780000       2.74050000
C        1.49240000      -0.01550000       2.30510000
H       -0.68260000       2.12060000      -0.57110000
H        0.34500000       1.14610000      -1.63010000
H        2.27480000       1.95980000      -0.27320000
H        1.18570000       2.38140000       1.05800000
H       -0.87060000       0.23620000       1.04390000
H       -0.39290000      -0.83410000      -0.28780000
H        2.06890000      -1.78130000       0.31270000
H        2.16130000      -0.65350000      -1.03400000
H        4.41060000      -1.25830000       0.06180000
H        4.11860000       0.45200000      -0.11750000
H        4.97010000      -0.26100000       2.27340000
H        3.13130000       0.05110000       3.80380000
H        0.96970000       0.78740000       2.84250000
H        0.98330000      -0.94410000       2.60980000
