15
Properties=species:S:1:pos:R:3 gdb_45954=T pbc="F F F"
O       -0.03050000       0.11180000      -0.67890000
C        0.01330000       1.21770000      -0.22070000
C       -1.17410000       2.01840000       0.32540000
C       -0.73490000       3.49510000       0.35380000
C        0.70240000       3.53600000      -0.17690000
O        1.27400000       4.50150000      -0.59640000
C        1.28420000       2.10010000      -0.12520000
C        1.91330000       1.88870000       1.16840000
C        2.38560000       1.72770000       2.26250000
H       -2.04720000       1.82850000      -0.30320000
H       -1.41100000       1.63480000       1.32300000
H       -1.35630000       4.15350000      -0.25770000
H       -0.73350000       3.90990000       1.36710000
H        1.97660000       1.90980000      -0.94890000
H        2.82920000       1.57780000       3.21590000
