16
Properties=species:S:1:pos:R:3 gdb_1529=T pbc="F F F"
C        0.07030000       1.42780000      -0.08290000
N        0.25970000      -0.00620000       0.01580000
C        0.38070000      -0.64690000       1.21580000
O        0.35030000      -0.08200000       2.28930000
C        0.49510000      -2.17120000       1.09330000
O        1.39070000      -2.63410000       2.06300000
C        1.43770000      -4.03900000       2.13540000
H        0.93060000       1.91660000      -0.55430000
H       -0.82960000       1.66990000      -0.65870000
H       -0.03810000       1.80920000       0.93310000
H        0.36650000      -0.53910000      -0.83100000
H       -0.51410000      -2.59330000       1.24830000
H        0.81550000      -2.46940000       0.07880000
H        0.45370000      -4.46680000       2.38520000
H        1.77730000      -4.49000000       1.18890000
H        2.14760000      -4.29810000       2.92400000
