10
Properties=species:S:1:pos:R:3 gdb_132897=T pbc="F F F"
F        0.03260000       0.02860000       0.00260000
C       -0.02800000       1.35010000       0.01050000
C       -1.20620000       1.99660000       0.03010000
O       -1.23410000       3.35430000       0.03780000
C       -0.08090000       4.10940000       0.02610000
O       -0.12560000       5.30390000       0.03310000
C        1.13940000       3.26940000       0.00490000
F        2.26270000       3.94710000      -0.00680000
N        1.16990000       1.99580000      -0.00230000
H       -2.18360000       1.53750000       0.04100000
