17
Properties=species:S:1:pos:R:3 gdb_46586=T pbc="F F F"
O        0.02470000      -0.01220000      -0.20450000
C       -0.00300000       1.18500000      -0.09200000
C       -1.28410000       2.06930000      -0.08330000
C       -0.88630000       3.37950000      -0.82410000
C        0.62180000       3.47400000      -0.61930000
C        1.16750000       3.36250000       0.77320000
C        1.14300000       2.13980000      -0.10830000
O        2.26020000       2.11400000      -0.99920000
C        1.76400000       3.33330000      -1.63600000
H       -2.09860000       1.52290000      -0.56180000
H       -1.59270000       2.25760000       0.95180000
H       -1.10250000       3.27910000      -1.89290000
H       -1.43510000       4.25410000      -0.46230000
H        2.15320000       3.75640000       0.99740000
H        0.45420000       3.41560000       1.58730000
H        1.41150000       3.12180000      -2.65200000
H        2.52750000       4.11840000      -1.65990000
