18
Properties=species:S:1:pos:R:3 gdb_10744=T pbc="F F F"
C        0.15720000       1.41550000       0.08990000
C       -0.04210000      -0.10470000       0.00820000
O        0.57470000      -0.64160000       1.18520000
C       -1.47530000      -0.43830000      -0.00020000
C       -2.63920000      -0.74020000      -0.00240000
C        0.61530000      -0.66010000      -1.26180000
C        2.09880000      -0.90720000      -1.29950000
C        1.13510000      -2.06970000      -1.32440000
H        1.22700000       1.63160000       0.14910000
H       -0.25570000       1.90610000      -0.79510000
H       -0.33620000       1.81280000       0.97940000
H        0.17110000      -1.49730000       1.36260000
H       -3.66950000      -0.99870000      -0.00320000
H        0.15910000      -0.27760000      -2.17010000
H        2.64040000      -0.65530000      -2.20430000
H        2.64700000      -0.75210000      -0.37760000
H        1.07950000      -2.67780000      -0.42810000
H        1.00070000      -2.62350000      -2.24660000
