14
Properties=species:S:1:pos:R:3 gdb_5454=T pbc="F F F"
C       -0.00550000       1.54030000       0.08810000
C        0.01460000       0.04610000       0.04820000
C        0.00040000      -0.74480000      -1.07430000
O        0.02710000      -2.07210000      -0.71940000
C        0.05810000      -2.11320000       0.63130000
C        0.05230000      -0.85930000       1.15640000
C       -0.03490000      -0.42660000      -2.44220000
C       -0.06530000      -0.13070000      -3.61030000
H        0.88270000       1.93750000       0.59220000
H       -0.03540000       1.95470000      -0.92240000
H       -0.87940000       1.91270000       0.63430000
H        0.08180000      -3.09860000       1.06760000
H        0.07220000      -0.60140000       2.20410000
H       -0.09200000       0.12580000      -4.64020000
