17
Properties=species:S:1:pos:R:3 gdb_91992=T pbc="F F F"
O       -1.01750000       1.14380000      -0.71330000
C       -0.17570000       0.13590000      -0.18570000
C       -1.05850000      -0.99610000       0.36590000
C       -1.16840000      -2.00220000      -0.77030000
C       -1.48720000      -1.49390000      -2.12770000
N       -0.08480000      -1.78570000      -1.75820000
C        0.66900000      -0.61100000      -1.27980000
C        1.06370000       0.29370000      -2.35880000
N        1.35200000       1.06910000      -3.16620000
H       -0.47320000       1.78860000      -1.18190000
H        0.48990000       0.55350000       0.58110000
H       -0.57690000      -1.46330000       1.23070000
H       -2.02160000      -0.59490000       0.69070000
H       -1.37430000      -3.03770000      -0.51670000
H       -1.88410000      -2.17420000      -2.87470000
H       -1.79640000      -0.45920000      -2.22310000
H        1.58290000      -0.99400000      -0.80920000
