24
Properties=species:S:1:pos:R:3 gdb_100125=T pbc="F F F"
C        0.10080000       1.59070000       0.04530000
C        0.05850000       0.06290000      -0.04950000
C        0.67900000      -0.53840000      -1.32530000
C        0.62480000      -2.06980000      -1.24690000
C       -0.01380000      -0.01950000      -2.59310000
O        2.06090000      -0.08720000      -1.27430000
C        2.91190000      -0.42250000      -2.25870000
N        4.11080000      -0.03660000      -2.22290000
C        4.96650000      -0.43830000      -3.31850000
H        1.12360000       1.95570000      -0.07380000
H       -0.52430000       2.06870000      -0.71520000
H       -0.26700000       1.91840000       1.02230000
H        0.59480000      -0.36540000       0.80480000
H       -0.97670000      -0.29200000       0.01920000
H       -0.41440000      -2.40550000      -1.17700000
H        1.06490000      -2.54100000      -2.13050000
H        1.16280000      -2.42430000      -0.36340000
H        0.13570000       1.05630000      -2.70690000
H        0.36080000      -0.51340000      -3.49400000
H       -1.08920000      -0.21440000      -2.53570000
H        2.48990000      -1.03760000      -3.06570000
H        4.46140000      -1.05320000      -4.08290000
H        5.37740000       0.45000000      -3.81260000
H        5.82000000      -1.00810000      -2.93240000
