21
Properties=species:S:1:pos:R:3 gdb_99535=T pbc="F F F"
C       -0.08920000       1.60600000       0.00780000
C        0.04660000       0.08160000      -0.01830000
C        0.73710000      -0.49660000       1.24040000
C        0.00490000      -0.12000000       2.44900000
C       -0.63450000       0.18220000       3.42120000
C        0.90670000      -2.05300000       1.17780000
C        1.65110000      -2.53090000      -0.08630000
C        1.59870000      -2.54100000       2.37010000
C        2.20860000      -2.94760000       3.32270000
H        0.89230000       2.08810000       0.07860000
H       -0.57160000       1.96610000      -0.90590000
H       -0.68560000       1.93530000       0.86250000
H       -0.94350000      -0.37990000      -0.11950000
H        0.62580000      -0.21050000      -0.89930000
H        1.74740000      -0.06760000       1.30190000
H       -1.17720000       0.44660000       4.29480000
H       -0.10370000      -2.48340000       1.16810000
H        2.62430000      -2.03730000      -0.17370000
H        1.82610000      -3.60780000      -0.02770000
H        1.07470000      -2.33020000      -0.99220000
H        2.72730000      -3.30360000       4.17790000
