16
Properties=species:S:1:pos:R:3 gdb_97024=T pbc="F F F"
C        0.15090000       1.32520000      -0.17070000
N       -0.21530000      -0.03980000       0.16460000
H       -0.52010000      -0.60500000      -0.61440000
C        0.52160000      -0.75810000       1.07630000
N        1.23030000      -0.17860000       2.08480000
C        1.81370000      -1.15880000       2.88470000
C        1.47650000      -2.37320000       2.37020000
C        0.65620000      -2.14100000       1.21250000
C        0.07870000      -3.07390000       0.33000000
N       -0.41150000      -3.80660000      -0.42640000
H        1.19810000       1.43240000      -0.49210000
H       -0.49710000       1.67320000      -0.97690000
H       -0.01900000       1.99120000       0.68400000
H        1.28910000       0.81040000       2.24960000
H        2.41700000      -0.88460000       3.73340000
H        1.77110000      -3.33860000       2.74830000
