20
Properties=species:S:1:pos:R:3 gdb_111433=T pbc="F F F"
C       -0.08850000       1.52240000       0.08200000
C        0.08100000       0.00090000       0.05710000
C        0.70890000      -0.51710000      -1.23950000
C        0.93660000      -2.02520000      -1.28170000
O       -0.26510000      -2.80730000      -1.24560000
C        0.34280000      -2.54480000      -2.52070000
C       -0.26350000      -1.37920000      -3.26600000
C       -1.41730000      -0.70620000      -2.61310000
N       -0.06150000      -0.15560000      -2.46280000
H        0.87740000       2.02870000      -0.02410000
H       -0.72880000       1.86050000      -0.73700000
H       -0.53600000       1.85070000       1.02510000
H        0.71910000      -0.31490000       0.89230000
H       -0.88490000      -0.49290000       0.20850000
H        1.69400000      -0.04350000      -1.36270000
H        1.79920000      -2.46780000      -0.78590000
H        0.71380000      -3.41440000      -3.05510000
H       -0.08630000      -1.31470000      -4.33600000
H       -2.08280000      -0.08070000      -3.20240000
H       -1.87910000      -1.23370000      -1.78620000
