19
Properties=species:S:1:pos:R:3 gdb_106476=T pbc="F F F"
C       -0.02600000       1.46360000       0.13610000
N       -0.07420000       0.01410000      -0.06250000
C        0.64920000      -0.48510000      -1.17610000
C        2.23610000      -0.43640000      -1.40990000
C        1.85620000      -1.52970000      -2.42250000
C        0.78270000      -2.02580000      -1.43250000
O        1.05970000      -0.78500000      -3.39490000
C        0.22240000      -0.06310000      -2.57360000
N       -0.67020000       0.74920000      -2.93210000
H        0.99490000       1.86190000       0.26370000
H       -0.48600000       1.95390000      -0.72330000
H       -0.60410000       1.71500000       1.02940000
H        0.22370000      -0.46710000       0.77830000
H        2.68690000       0.47500000      -1.80660000
H        2.78520000      -0.81110000      -0.54350000
H        2.56000000      -2.17020000      -2.94710000
H        1.20070000      -2.55330000      -0.57200000
H       -0.08080000      -2.55450000      -1.84060000
H       -0.70990000       0.81390000      -3.95120000
