19
Properties=species:S:1:pos:R:3 gdb_113642=T pbc="F F F"
C        0.07660000       1.49630000       0.12420000
C       -0.23350000       0.00010000      -0.01330000
C        0.39240000      -0.58870000      -1.25980000
C        1.79580000      -1.08100000      -1.28160000
C        0.66940000      -2.09770000      -1.42380000
C        0.41540000      -3.03300000      -0.31590000
O        0.70200000      -2.86240000       0.85390000
C       -0.27440000      -4.35810000      -0.67800000
O       -0.58760000      -4.67700000      -1.79450000
H        1.15500000       1.67000000       0.19850000
H       -0.29210000       2.06210000      -0.73860000
H       -0.39370000       1.91140000       1.02050000
H        0.12550000      -0.53890000       0.86730000
H       -1.32050000      -0.14630000      -0.05070000
H        0.03870000      -0.14160000      -2.18650000
H        2.41510000      -0.91040000      -2.15490000
H        2.32500000      -1.11680000      -0.33450000
H        0.47010000      -2.51270000      -2.40380000
H       -0.44650000      -4.99790000       0.21340000
