18
Properties=species:S:1:pos:R:3 gdb_86836=T pbc="F F F"
C       -0.14810000       1.53660000      -0.02590000
C        0.06670000       0.02810000       0.01190000
N        0.85640000      -0.48320000      -1.11340000
C        1.44340000      -1.77680000      -0.70050000
C        1.89260000      -1.47620000       0.74480000
C        0.88110000      -0.43520000       1.22670000
O        0.74350000      -0.04010000       2.35380000
C        0.49760000      -2.89990000      -0.76530000
C       -0.30450000      -3.79320000      -0.84110000
H        0.80560000       2.05290000      -0.16530000
H       -0.81600000       1.82040000      -0.84480000
H       -0.59360000       1.86450000       0.91720000
H       -0.91330000      -0.47660000       0.10750000
H        0.30150000      -0.58690000      -1.95530000
H        2.29940000      -2.00020000      -1.34570000
H        1.92250000      -2.34600000       1.40100000
H        2.88340000      -1.00910000       0.74280000
H       -1.00420000      -4.58980000      -0.90650000
