16
Properties=species:S:1:pos:R:3 gdb_127317=T pbc="F F F"
C       -0.01380000       1.46190000       0.00440000
N       -0.00890000       0.01750000       0.00280000
C       -0.05860000      -0.79920000      -1.11030000
C       -0.03730000      -2.13320000      -0.75480000
C        0.02960000      -2.12720000       0.66590000
C        0.04600000      -0.80310000       1.10890000
C        0.11210000      -0.85800000       2.51670000
N        0.13530000      -2.12790000       2.92080000
N        0.08470000      -2.88740000       1.79380000
H        0.89690000       1.85980000       0.46630000
H       -0.06400000       1.82060000      -1.02540000
H       -0.87930000       1.85370000       0.55080000
H       -0.10640000      -0.35630000      -2.09400000
H       -0.06640000      -2.96970000      -1.43370000
H        0.14380000      -0.06620000       3.24920000
H        0.09340000      -3.88670000       1.88980000
