19
Properties=species:S:1:pos:R:3 gdb_89940=T pbc="F F F"
C       -0.08950000       1.51690000       0.17700000
N        0.00290000       0.07390000       0.16840000
C       -1.21380000      -0.70190000       0.47300000
C       -0.37370000      -1.66620000       1.34630000
C        0.55180000      -2.65880000       0.55890000
C        1.74520000      -1.66390000       0.68690000
C        0.78010000      -0.59420000       1.23450000
C       -0.93240000      -2.12710000       2.59000000
N       -1.37540000      -2.49740000       3.59320000
H        0.90320000       1.95240000       0.02410000
H       -0.72930000       1.84890000      -0.64740000
H       -0.50550000       1.92590000       1.11690000
H       -1.94480000      -0.14900000       1.08210000
H       -1.72290000      -1.13300000      -0.39670000
H        0.69520000      -3.62020000       1.05310000
H        0.20320000      -2.83350000      -0.46070000
H        2.47220000      -1.98990000       1.43590000
H        2.26520000      -1.39260000      -0.23330000
H        1.08450000       0.04150000       2.07180000
