17
Properties=species:S:1:pos:R:3 gdb_82544=T pbc="F F F"
O        0.01770000       1.38480000       0.00930000
C       -0.05430000      -0.00300000       0.02480000
C       -0.51660000      -0.77040000       1.22720000
O       -1.51890000       0.01000000       1.90500000
C       -2.40170000      -0.11200000       0.76760000
C       -3.83170000      -0.49010000       0.92050000
C       -3.43990000       0.90130000       0.43170000
C       -1.34420000      -0.80200000      -0.05910000
O       -1.59970000      -1.82480000      -0.94660000
H       -0.43760000       1.68190000       0.80900000
H        0.76780000      -0.46620000      -0.51660000
H        0.02840000      -1.50800000       1.80370000
H       -4.23900000      -1.19910000       0.20770000
H       -4.21800000      -0.57420000       1.93010000
H       -3.57450000       1.72260000       1.12760000
H       -3.59790000       1.15880000      -0.61040000
H       -1.43990000      -1.49960000      -1.83930000
