19
Properties=species:S:1:pos:R:3 gdb_65310=T pbc="F F F"
C       -0.08190000       1.57870000       0.11710000
C       -0.06350000       0.07300000       0.09880000
O        1.16930000      -0.57650000      -0.29670000
C        0.76390000      -0.72410000       1.04160000
C        1.54180000      -0.21730000       2.26180000
C        0.95100000      -1.41570000       3.06440000
C        0.47320000      -2.06500000       1.73130000
C       -1.26920000      -0.60720000      -0.47430000
O       -2.32920000      -0.06270000      -0.65520000
H        0.82080000       1.97520000       0.58480000
H       -0.14680000       1.96960000      -0.90260000
H       -0.96020000       1.93480000       0.66240000
H        2.62050000      -0.30230000       2.10130000
H        1.31840000       0.78950000       2.62140000
H        1.65720000      -1.99520000       3.66020000
H        0.11720000      -1.11610000       3.70260000
H       -0.54700000      -2.45230000       1.69720000
H        1.15560000      -2.84060000       1.37130000
H       -1.09770000      -1.67490000      -0.73090000
