15
Properties=species:S:1:pos:R:3 gdb_46454=T pbc="F F F"
O       -0.01870000      -0.05300000       0.02540000
C       -0.01170000       1.14880000       0.01910000
N       -1.09610000       1.98270000       0.13260000
C       -0.80490000       3.39120000      -0.00830000
C        0.73120000       3.38140000      -0.02630000
C        1.42150000       2.74010000       1.12750000
N        1.18490000       1.96140000      -0.10490000
C        1.39320000       4.36430000      -0.83480000
C        1.91470000       5.21990000      -1.49810000
H       -2.02700000       1.60090000       0.15830000
H       -1.18230000       3.80560000      -0.95050000
H       -1.20970000       3.98840000       0.81710000
H        2.46250000       2.98040000       1.31450000
H        0.82800000       2.49480000       2.00490000
H        2.38950000       5.96310000      -2.09020000
