21
Properties=species:S:1:pos:R:3 gdb_114448=T pbc="F F F"
C       -0.06280000       1.57550000      -0.09230000
C       -0.00270000       0.05840000       0.10620000
C       -1.38060000      -0.59560000       0.08050000
O       -2.03930000      -0.36680000      -1.18900000
C       -2.31140000      -1.67860000      -1.63490000
C       -2.78650000      -2.57440000      -0.45220000
C       -2.10460000      -3.78800000      -1.12140000
C       -1.11100000      -2.62550000      -1.34050000
C       -1.39920000      -2.12190000       0.11850000
H        0.93890000       2.01560000      -0.08910000
H       -0.54170000       1.81550000      -1.04520000
H       -0.64180000       2.05600000       0.70440000
H        0.61950000      -0.39620000      -0.67410000
H        0.47180000      -0.17820000       1.06780000
H       -2.00730000      -0.16530000       0.87610000
H       -2.82040000      -1.66910000      -2.59840000
H       -3.74740000      -2.53220000       0.06240000
H       -1.77510000      -4.58730000      -0.45310000
H       -2.58860000      -4.19950000      -2.01220000
H       -0.14670000      -2.64780000      -1.84920000
H       -0.96290000      -2.63760000       0.97470000
