16
Properties=species:S:1:pos:R:3 gdb_124126=T pbc="F F F"
C       -0.11840000       1.46590000       0.03310000
C       -0.01650000       0.01690000       0.01440000
C        0.06520000      -1.18650000      -0.00110000
C        0.16480000      -2.58950000      -0.01870000
C        1.22840000      -3.44460000       0.03210000
C        0.64030000      -4.73770000      -0.02580000
C        1.31360000      -6.07250000      -0.00700000
N       -0.66980000      -4.65930000      -0.10490000
O       -0.98220000      -3.30820000      -0.10130000
H        0.87260000       1.92980000      -0.01350000
H       -0.70070000       1.83050000      -0.82020000
H       -0.61020000       1.81530000       0.94760000
H        2.27130000      -3.18470000       0.10050000
H        1.89560000      -6.20450000       0.91080000
H        0.56790000      -6.86740000      -0.06570000
H        2.00310000      -6.17520000      -0.85120000
