21
Properties=species:S:1:pos:R:3 gdb_94650=T pbc="F F F"
C       -0.24540000       1.54740000      -0.20620000
C        0.04680000       0.05490000      -0.12600000
C        1.42830000      -0.42550000      -0.62340000
O        1.76010000      -0.97970000       0.66660000
C        0.48780000      -0.57680000       1.22800000
C        0.66560000       0.30000000       2.45880000
C        1.40700000      -0.45870000       3.57500000
C        1.76020000       0.44380000       4.73170000
O        1.44370000       0.26050000       5.87880000
H        0.57680000       2.14790000       0.19490000
H       -0.39310000       1.84890000      -1.24870000
H       -1.15520000       1.80960000       0.34380000
H       -0.77770000      -0.50330000      -0.57710000
H        1.41840000      -1.19230000      -1.40740000
H        2.12430000       0.37150000      -0.91740000
H       -0.10420000      -1.46280000       1.50050000
H        1.23290000       1.19890000       2.19160000
H       -0.31850000       0.62910000       2.81540000
H        0.82040000      -1.30190000       3.95120000
H        2.34300000      -0.84760000       3.15060000
H        2.35980000       1.34010000       4.44160000
