19
Properties=species:S:1:pos:R:3 gdb_115216=T pbc="F F F"
C       -0.07740000       1.59910000       0.13990000
C       -0.06200000       0.06960000       0.07580000
C        0.77940000      -0.56030000       1.18080000
C        0.74630000      -2.07880000       1.14410000
O        1.62990000      -2.67490000       2.11230000
C        2.73630000      -2.02490000       2.53130000
O        3.49990000      -2.55750000       3.28840000
C        2.94430000      -0.58420000       2.07030000
O        2.13030000      -0.15300000       1.00330000
H        0.93870000       1.99580000       0.07760000
H       -0.66160000       2.01770000      -0.68430000
H       -0.52130000       1.95120000       1.07750000
H       -1.08300000      -0.32370000       0.15130000
H        0.33700000      -0.26110000      -0.89060000
H        0.41800000      -0.21440000       2.16600000
H       -0.24970000      -2.46640000       1.37540000
H        1.04050000      -2.43140000       0.14850000
H        2.80140000       0.04810000       2.96270000
H        3.98610000      -0.48200000       1.75910000
