14
Properties=species:S:1:pos:R:3 gdb_133530=T pbc="F F F"
C        0.13220000       1.58590000       0.22850000
C        0.01710000       0.07160000       0.07560000
O        0.74040000      -0.52030000       1.14180000
C       -1.45660000      -0.34890000       0.22540000
O       -2.16490000      -0.79340000      -0.63420000
C        0.61320000      -0.39710000      -1.26090000
F        1.89180000      -0.01590000      -1.37520000
F        0.59150000      -1.74170000      -1.32340000
F       -0.05320000       0.08650000      -2.30780000
H        1.18730000       1.86600000       0.25300000
H       -0.36070000       2.09610000      -0.60190000
H       -0.33250000       1.89650000       1.16760000
H        0.78100000      -1.47240000       0.98600000
H       -1.80010000      -0.21310000       1.27570000
