15
Properties=species:S:1:pos:R:3 gdb_55330=T pbc="F F F"
N        0.14430000       1.18350000      -0.45790000
C       -0.11540000       0.17620000       0.42040000
O        0.51180000       0.00190000       1.44470000
C       -1.29840000      -0.72020000       0.08670000
C       -1.82970000      -0.97870000      -1.33990000
O       -1.79100000      -2.40680000      -1.12670000
C       -1.06630000      -2.25950000       0.11200000
C        0.32270000      -2.71760000      -0.01740000
N        1.40160000      -3.10650000      -0.15580000
H        0.94390000       1.76930000      -0.27650000
H       -0.31300000       1.26210000      -1.34860000
H       -2.10320000      -0.45920000       0.77760000
H       -2.84140000      -0.62830000      -1.56420000
H       -1.15080000      -0.68040000      -2.15020000
H       -1.54580000      -2.80160000       0.93220000
