20
Properties=species:S:1:pos:R:3 gdb_97198=T pbc="F F F"
C        0.00110000       1.47220000       0.15690000
N       -0.00120000       0.01950000       0.12230000
C       -1.08210000      -0.60860000      -0.04810000
C       -1.13100000      -2.11940000      -0.03390000
C       -2.17850000      -2.66760000      -1.01040000
C       -2.44550000      -4.15270000      -0.84550000
O       -3.40860000      -1.97230000      -0.77760000
C       -3.26380000      -0.61360000      -1.00810000
O       -2.30490000       0.01230000      -0.15350000
H        0.86330000       1.83560000      -0.41170000
H       -0.91180000       1.93430000      -0.23410000
H        0.13990000       1.80860000       1.19180000
H       -0.13200000      -2.50450000      -0.24510000
H       -1.41290000      -2.43940000       0.97780000
H       -1.85450000      -2.46040000      -2.04490000
H       -2.79480000      -4.36650000       0.16910000
H       -3.21160000      -4.48400000      -1.55140000
H       -1.53160000      -4.72600000      -1.02690000
H       -2.96640000      -0.42380000      -2.05390000
H       -4.21850000      -0.13170000      -0.79140000
