18
Properties=species:S:1:pos:R:3 gdb_98000=T pbc="F F F"
O        0.23150000       0.30050000       1.20910000
C       -0.15110000       0.26080000      -0.16070000
C       -1.45710000      -0.37380000      -0.28600000
C       -2.54040000      -0.88240000      -0.41180000
C       -3.83650000      -1.53460000      -0.54160000
C       -3.78910000      -2.99240000      -0.07690000
O       -5.09340000      -3.53720000      -0.26660000
C       -5.35440000      -4.70690000       0.34820000
N       -6.45320000      -5.29400000       0.14820000
H        1.09030000       0.73330000       1.25400000
H       -0.20410000       1.27470000      -0.59010000
H        0.58210000      -0.30050000      -0.76280000
H       -4.59750000      -1.00350000       0.04220000
H       -4.17330000      -1.51040000      -1.58480000
H       -3.05360000      -3.55480000      -0.66530000
H       -3.49740000      -3.04440000       0.97940000
H       -4.54230000      -5.04720000       1.00630000
H       -6.49510000      -6.14790000       0.70050000
