23
Properties=species:S:1:pos:R:3 gdb_101894=T pbc="F F F"
C        0.25170000       1.37600000      -0.06190000
C       -0.05080000      -0.12550000      -0.03810000
C       -1.54840000      -0.48600000       0.02070000
C       -2.29890000      -0.03510000      -1.24210000
C       -1.70740000      -1.99650000       0.27740000
C       -3.14240000      -2.44200000       0.54020000
O       -3.16430000      -3.81330000       0.96630000
C       -3.63430000      -4.73660000       0.11010000
O       -3.66100000      -5.90350000       0.36300000
H        1.33110000       1.55380000      -0.03110000
H       -0.13180000       1.86190000      -0.96410000
H       -0.19160000       1.88250000       0.80300000
H        0.39660000      -0.60530000      -0.91950000
H        0.44650000      -0.57100000       0.83260000
H       -1.98190000       0.04550000       0.88200000
H       -2.17880000       1.03700000      -1.41780000
H       -1.92210000      -0.56220000      -2.12720000
H       -3.37380000      -0.22790000      -1.17220000
H       -1.30850000      -2.56280000      -0.57520000
H       -1.10780000      -2.28420000       1.14860000
H       -3.59040000      -1.86200000       1.35360000
H       -3.77690000      -2.32470000      -0.34640000
H       -3.99530000      -4.29500000      -0.84080000
