18
Properties=species:S:1:pos:R:3 gdb_121340=T pbc="F F F"
O       -0.08320000       1.35620000       0.33540000
C        0.01580000      -0.03140000       0.05840000
C       -1.39780000      -0.59910000       0.04980000
C       -1.41760000      -2.10450000      -0.22110000
O       -0.76400000      -2.86780000       0.79980000
C       -1.76680000      -3.35400000       1.64940000
O       -2.95580000      -3.47250000       0.86910000
C       -2.82310000      -2.67740000      -0.23220000
N       -3.70300000      -2.45310000      -1.10430000
H        0.80660000       1.71750000       0.38160000
H        0.49110000      -0.21280000      -0.92030000
H        0.61640000      -0.55430000       0.81710000
H       -1.87730000      -0.38200000       1.01150000
H       -1.99360000      -0.10530000      -0.72460000
H       -0.91300000      -2.32620000      -1.16650000
H       -1.48180000      -4.34210000       2.02110000
H       -1.96600000      -2.67170000       2.49050000
H       -4.57510000      -2.93510000      -0.88270000
