19
Properties=species:S:1:pos:R:3 gdb_97102=T pbc="F F F"
C        0.05620000       1.38860000      -0.03660000
N        0.33380000      -0.03780000      -0.10490000
C        0.58940000      -0.63940000       0.97340000
N        0.66040000      -0.28010000       2.33290000
C        1.11930000      -1.61480000       2.77690000
C        0.95150000      -2.06830000       1.31270000
O        0.26250000      -3.22120000       0.89010000
C        1.64820000      -3.08980000       0.52200000
C        1.95440000      -2.90660000      -0.94040000
H        0.97900000       1.97140000      -0.16400000
H       -0.61390000       1.66630000      -0.85540000
H       -0.41220000       1.69830000       0.90980000
H        1.04370000       0.58850000       2.67540000
H        2.14830000      -1.64590000       3.15200000
H        0.44640000      -2.09490000       3.49300000
H        2.30200000      -3.77170000       1.07000000
H        1.30970000      -2.13770000      -1.37040000
H        2.99880000      -2.60260000      -1.07000000
H        1.80930000      -3.84880000      -1.47910000
