17
Properties=species:S:1:pos:R:3 gdb_5326=T pbc="F F F"
C        0.01790000       1.38100000       0.03190000
N        0.28290000      -0.04030000       0.02800000
C       -0.18590000      -0.76680000       1.19750000
C        0.14830000      -0.67450000      -1.20150000
C       -0.02590000      -0.10940000      -2.44870000
N       -0.02320000      -1.18430000      -3.32700000
C        0.12750000      -2.30990000      -2.58970000
N        0.23360000      -2.04470000      -1.30620000
H        0.64520000       1.88050000      -0.71400000
H       -1.03680000       1.62970000      -0.18610000
H        0.26920000       1.79320000       1.01300000
H       -1.28400000      -0.73890000       1.30690000
H        0.12320000      -1.80850000       1.11800000
H        0.25890000      -0.32770000       2.09620000
H       -0.14700000       0.90250000      -2.79050000
H       -0.12520000      -1.13080000      -4.32560000
H        0.15390000      -3.29470000      -3.03160000
