16
Properties=species:S:1:pos:R:3 gdb_35869=T pbc="F F F"
N       -0.19200000      -1.16750000      -0.16430000
C       -0.10220000      -0.01710000      -0.09370000
C        0.01410000       1.42950000       0.01100000
C       -0.57110000       2.01410000       1.32620000
O        0.15420000       3.20960000       1.53460000
C        1.51030000       2.91120000       1.23960000
C        1.46600000       1.96140000       0.04400000
C        2.62710000       1.27230000      -0.51780000
O        2.02070000       2.38680000      -1.19070000
H       -0.47970000       1.88960000      -0.85080000
H       -1.63120000       2.25980000       1.25110000
H       -0.42390000       1.30320000       2.15350000
H        2.03480000       3.83850000       1.00140000
H        1.99760000       2.42580000       2.10040000
H        3.61620000       1.46110000      -0.10220000
H        2.49840000       0.30510000      -0.99970000
