18
Properties=species:S:1:pos:R:3 gdb_102935=T pbc="F F F"
C       -0.16440000       1.59850000       0.10330000
C       -0.04420000       0.07620000       0.00950000
C       -1.40500000      -0.64080000      -0.14490000
C       -1.22210000      -2.15860000      -0.33390000
O       -2.44720000      -2.77840000      -0.70500000
C       -3.08720000      -3.54280000       0.21410000
O       -4.11580000      -4.09330000      -0.02330000
C       -2.27720000      -0.38350000       1.00530000
N       -2.94480000      -0.20090000       1.93100000
H        0.82420000       2.05560000       0.19870000
H       -0.64100000       2.01370000      -0.79090000
H       -0.75930000       1.89650000       0.97150000
H        0.57060000      -0.19840000      -0.85540000
H        0.46540000      -0.31570000       0.89740000
H       -1.91390000      -0.25790000      -1.03820000
H       -0.51600000      -2.33440000      -1.14990000
H       -0.81720000      -2.61160000       0.57950000
H       -2.54510000      -3.59670000       1.17700000
