13
Properties=species:S:1:pos:R:3 gdb_42331=T pbc="F F F"
O       -0.04440000       0.13250000      -0.54490000
C       -0.00250000       1.32630000      -0.31770000
C        1.26620000       2.00660000      -0.11310000
C        2.32330000       2.57100000       0.05300000
C        3.51570000       3.20810000       0.23960000
N        4.52830000       3.75430000       0.39840000
C       -1.22180000       2.17780000      -0.23730000
C       -2.18670000       2.04320000      -1.38470000
N       -2.50740000       1.48830000      -0.08150000
H       -1.12030000       3.13320000       0.26690000
H       -2.75640000       2.91990000      -1.67730000
H       -1.90310000       1.36940000      -2.18820000
H       -2.31820000       0.48520000      -0.08960000
