17
Properties=species:S:1:pos:R:3 gdb_31880=T pbc="F F F"
C       -0.10870000       1.52580000       0.35380000
C       -0.06870000       0.04880000      -0.07640000
C       -1.41930000      -0.56530000      -0.20950000
C       -2.11620000      -1.08330000      -1.26260000
C       -3.37480000      -1.51220000      -0.74980000
C       -3.36680000      -1.22700000       0.58840000
O       -2.16800000      -0.64540000       0.92340000
C       -4.31490000      -1.41920000       1.60670000
C       -5.13600000      -1.58970000       2.47200000
H        0.90500000       1.92380000       0.45680000
H       -0.64300000       2.13310000      -0.38290000
H       -0.61870000       1.63480000       1.31460000
H        0.44100000      -0.05150000      -1.03990000
H        0.51980000      -0.52380000       0.65220000
H       -1.76830000      -1.15060000      -2.28170000
H       -4.18670000      -1.97310000      -1.28930000
H       -5.85950000      -1.74110000       3.23410000
