21
Properties=species:S:1:pos:R:3 gdb_108688=T pbc="F F F"
C       -0.20460000       1.59990000      -0.17410000
C        0.07880000       0.09840000       0.02950000
C        0.76880000      -0.53110000      -1.14550000
C        2.04650000      -0.95750000      -1.24770000
C        2.33880000      -1.57160000      -2.60080000
C        1.12600000      -1.13400000      -3.45480000
C        0.01500000      -0.80560000      -2.43060000
C        3.06800000      -0.90320000      -0.20470000
O        4.19710000      -1.32880000      -0.34460000
H        0.72810000       2.15790000      -0.29920000
H       -0.82330000       1.77740000      -1.05870000
H       -0.73350000       2.00920000       0.69150000
H        0.66280000      -0.03570000       0.94390000
H       -0.87520000      -0.42160000       0.19090000
H        3.29790000      -1.23920000      -3.00720000
H        2.40850000      -2.66370000      -2.51210000
H        1.38000000      -0.22840000      -4.01490000
H        0.82030000      -1.88880000      -4.18310000
H       -0.66390000      -1.65740000      -2.27150000
H       -0.62160000       0.03110000      -2.73910000
H        2.76060000      -0.43470000       0.75500000
