16
Properties=species:S:1:pos:R:3 gdb_24591=T pbc="F F F"
C       -0.12870000       1.11510000      -0.09360000
C        1.36830000       1.46570000      -0.19870000
C        1.57880000       0.24160000       0.71690000
O        0.15300000      -0.03840000       0.73270000
C        2.37390000      -0.87970000       0.14310000
N        2.68070000      -1.10650000      -1.09680000
C        3.37860000      -2.30430000      -1.07320000
C        3.45750000      -2.74290000       0.20540000
O        2.82030000      -1.83570000       0.99930000
H       -0.75280000       1.84540000       0.43480000
H       -0.62090000       0.83370000      -1.03110000
H        1.80320000       1.34670000      -1.19000000
H        1.66860000       2.42140000       0.23160000
H        1.93940000       0.45520000       1.73000000
H        3.77080000      -2.75430000      -1.97120000
H        3.89270000      -3.59530000       0.69770000
