19
Properties=species:S:1:pos:R:3 gdb_59621=T pbc="F F F"
C        0.05660000       1.57490000      -0.21660000
C        0.05380000       0.06090000       0.00920000
O        0.86420000      -0.30220000       1.11350000
C       -1.36800000      -0.50350000       0.18340000
C       -1.39170000      -2.04800000       0.30340000
N       -2.47240000      -2.26320000       1.25250000
C       -2.71720000      -1.14080000       2.01890000
O       -3.44950000      -1.05070000       2.97650000
N       -1.94600000      -0.10560000       1.46780000
H        1.08330000       1.93100000      -0.33010000
H       -0.50780000       1.84550000      -1.11570000
H       -0.38510000       2.10070000       0.63780000
H        0.50360000      -0.42900000      -0.86410000
H        0.34390000      -0.09620000       1.90260000
H       -1.99580000      -0.17930000      -0.65890000
H       -1.59380000      -2.52520000      -0.65950000
H       -0.42440000      -2.40120000       0.68200000
H       -2.63550000      -3.16140000       1.67800000
H       -2.34610000       0.81510000       1.57060000
