16
Properties=species:S:1:pos:R:3 gdb_7749=T pbc="F F F"
C        0.00510000       1.52730000       0.06260000
C        0.00620000       0.02970000      -0.04900000
C        0.05210000      -0.62170000      -1.20650000
C        0.05330000      -2.10920000      -1.32160000
O        0.00250000      -2.83650000      -0.08980000
C       -0.04720000      -2.26030000       1.13090000
O       -0.08900000      -2.96350000       2.10350000
C       -0.04850000      -0.74310000       1.23850000
H        0.86170000       1.87850000       0.65200000
H        0.04630000       2.00540000      -0.91920000
H       -0.89490000       1.88260000       0.58040000
H        0.09210000      -0.08590000      -2.15140000
H       -0.80390000      -2.44970000      -1.91870000
H        0.95390000      -2.45380000      -1.84840000
H        0.79440000      -0.47790000       1.89080000
H       -0.94090000      -0.47420000       1.81950000
