18
Properties=species:S:1:pos:R:3 gdb_50333=T pbc="F F F"
O       -0.04540000      -0.00720000       0.07850000
C        0.03420000       1.20510000       0.04360000
N        1.19350000       1.90520000       0.05540000
C        2.52270000       1.28270000       0.01990000
C        3.38070000       2.42550000      -0.53080000
C        2.85500000       2.88020000      -1.93490000
C        2.01590000       3.95080000      -1.23750000
C        2.76040000       3.72160000       0.07650000
C        1.32270000       3.34240000      -0.02330000
H       -0.85160000       1.87150000       0.00900000
H        2.83850000       0.97220000       1.02490000
H        2.50330000       0.39810000      -0.62130000
H        4.45360000       2.26740000      -0.43800000
H        3.65160000       3.32680000      -2.53410000
H        2.33000000       2.12870000      -2.53480000
H        1.67050000       4.88400000      -1.66790000
H        3.19320000       4.40800000       0.79170000
H        0.55880000       3.92770000       0.47340000
