16
Properties=species:S:1:pos:R:3 gdb_71928=T pbc="F F F"
O        0.26230000       1.42620000      -0.06510000
C        0.05610000       0.06610000      -0.07600000
C        0.37370000      -0.70150000      -1.37090000
N       -0.75930000      -1.66310000      -1.17170000
C       -0.39110000      -2.70560000      -0.15550000
C       -0.69270000      -1.75660000       1.02740000
C       -1.30320000      -0.79360000      -0.05410000
C        0.38530000      -0.68810000       1.21260000
O        0.98720000      -0.28860000       2.17430000
H        0.53340000       1.66960000       0.83140000
H        0.16520000      -0.06570000      -2.23700000
H        1.36560000      -1.15020000      -1.48760000
H       -1.10570000      -3.53190000      -0.20360000
H        0.62240000      -3.10950000      -0.24660000
H       -1.18180000      -2.12700000       1.92780000
H       -2.31660000      -0.40020000      -0.07590000
