19
Properties=species:S:1:pos:R:3 gdb_62632=T pbc="F F F"
C       -0.03530000       1.53640000       0.00870000
C       -0.01090000       0.00580000      -0.02180000
C       -1.42490000      -0.57570000      -0.10340000
C        0.94420000      -0.56660000      -1.07580000
C        2.30270000      -0.59400000      -0.38640000
O        2.13400000      -0.10840000       0.93470000
C        0.81620000      -0.60080000       1.15430000
O        0.89860000      -1.98590000       0.83500000
C        1.47480000      -1.85210000      -0.45320000
H        0.97080000       1.94840000       0.10570000
H       -0.48550000       1.93210000      -0.90770000
H       -0.63700000       1.89800000       0.85070000
H       -1.92160000      -0.25100000      -1.02370000
H       -1.40780000      -1.66690000      -0.08610000
H       -2.03620000      -0.22850000       0.73760000
H        0.81600000      -0.42570000      -2.14030000
H        3.27160000      -0.41620000      -0.82790000
H        0.50030000      -0.44750000       2.18310000
H        1.71770000      -2.77740000      -0.95330000
