16
Properties=species:S:1:pos:R:3 gdb_13118=T pbc="F F F"
C       -0.00730000       1.47150000      -0.02210000
C       -0.05010000      -0.03560000      -0.19300000
O       -1.32320000      -0.49750000       0.26300000
C       -1.47670000      -1.87700000       0.17660000
C       -2.87490000      -2.38880000       0.55390000
O       -3.03320000      -2.97760000      -0.77880000
C       -1.83300000      -2.46960000      -1.21030000
O       -1.36640000      -2.51930000      -2.30220000
H        0.95930000       1.86020000      -0.35520000
H       -0.79440000       1.94750000      -0.61330000
H       -0.15010000       1.74550000       1.02690000
H        0.09410000      -0.31970000      -1.24350000
H        0.74550000      -0.52100000       0.39540000
H       -0.64800000      -2.41890000       0.65770000
H       -2.93560000      -3.15430000       1.32850000
H       -3.60230000      -1.59250000       0.71910000
