16
Properties=species:S:1:pos:R:3 gdb_70468=T pbc="F F F"
O       -0.08780000       1.42960000      -0.04940000
C       -0.04990000       0.05360000      -0.02360000
C       -0.40030000      -0.83550000      -1.20020000
C       -1.16610000      -0.95370000       0.08880000
O       -0.43840000      -1.75390000       1.02680000
C        0.61560000      -0.75790000       1.09170000
C        2.01950000      -1.32980000       0.88830000
C        2.43850000      -2.20440000       1.98160000
N        2.76930000      -2.88630000       2.85340000
H        0.49740000       1.74360000      -0.74710000
H       -0.92930000      -0.30240000      -1.98500000
H        0.23660000      -1.64890000      -1.53650000
H       -2.23870000      -0.86710000       0.20530000
H        0.55780000      -0.21840000       2.04440000
H        2.06650000      -1.88920000      -0.05100000
H        2.73000000      -0.49720000       0.81530000
