17
Properties=species:S:1:pos:R:3 gdb_88349=T pbc="F F F"
C        0.18220000       1.55630000      -0.33600000
C        0.05270000       0.07320000      -0.06120000
C        1.25740000      -0.83600000      -0.06460000
C        0.51500000      -0.57800000       1.22270000
C        1.18130000       0.23310000       2.33710000
C        0.17820000       0.89770000       3.18630000
N       -0.63090000       1.42650000       3.81740000
C        2.06860000      -0.61520000       3.14970000
N        2.77410000      -1.29730000       3.75760000
H        1.14550000       1.95960000      -0.00790000
H        0.10970000       1.74810000      -1.41120000
H       -0.60930000       2.12670000       0.16060000
H       -0.86100000      -0.36200000      -0.45680000
H        1.18660000      -1.82360000      -0.50500000
H        2.23080000      -0.36870000      -0.18280000
H       -0.10020000      -1.38320000       1.60940000
H        1.80400000       1.01950000       1.89440000
