19
Properties=species:S:1:pos:R:3 gdb_82645=T pbc="F F F"
C        0.04640000       1.61350000      -0.03730000
C        0.06450000       0.09270000      -0.00710000
C        1.11530000      -0.65720000      -0.87620000
O        2.39010000      -0.10190000      -0.45550000
C        2.20090000      -0.76860000       0.78920000
C        0.68750000      -0.66030000       1.17780000
C        0.20890000      -0.75090000       2.59560000
C        1.20500000      -1.75970000       0.27780000
O        1.01280000      -3.11070000       0.36570000
H        1.05760000       2.00970000       0.08290000
H       -0.35600000       1.98350000      -0.98700000
H       -0.58100000       2.01570000       0.76560000
H       -0.92750000      -0.32750000      -0.20970000
H        1.02630000      -0.77410000      -1.95490000
H        3.01230000      -0.81060000       1.50430000
H        0.25250000       0.22380000       3.09420000
H       -0.82600000      -1.10740000       2.64400000
H        0.82180000      -1.44940000       3.17540000
H        1.76190000      -3.55630000      -0.04750000
