16
Properties=species:S:1:pos:R:3 gdb_125088=T pbc="F F F"
C       -0.04750000       1.58710000       0.06200000
C       -0.00980000       0.09470000       0.01720000
C        0.00200000      -0.73240000      -1.10160000
N        0.01420000      -2.01330000      -0.63470000
N        0.02560000      -2.08200000       0.71190000
C        0.00360000      -0.81030000       1.10790000
N       -0.07330000      -0.47740000       2.46060000
C       -0.01040000      -0.42460000      -2.47690000
C       -0.01980000      -0.16380000      -3.65330000
H        0.87620000       2.01190000       0.47670000
H       -0.17510000       2.00210000      -0.94100000
H       -0.87420000       1.94500000       0.68650000
H        0.02110000      -2.85830000      -1.17830000
H        0.13080000      -1.27450000       3.05020000
H        0.51380000       0.30670000       2.71330000
H       -0.02930000       0.06840000      -4.68940000
