17
Properties=species:S:1:pos:R:3 gdb_17685=T pbc="F F F"
O       -0.13710000       1.38370000      -0.05770000
C        0.00410000      -0.01090000       0.01750000
C       -0.43520000      -0.73560000       1.27270000
C       -1.30810000      -0.75280000       0.03000000
O       -2.45350000       0.04800000       0.02790000
C       -1.47990000      -2.01460000      -0.75580000
C       -2.80790000      -2.66930000      -0.83300000
N       -2.23810000      -1.98920000      -2.01340000
H        0.38130000       1.78740000       0.64580000
H        0.83650000      -0.41410000      -0.55650000
H        0.10220000      -1.63310000       1.56100000
H       -0.80010000      -0.12780000       2.09440000
H       -2.13950000       0.95910000      -0.06900000
H       -0.58680000      -2.63630000      -0.78550000
H       -2.87560000      -3.75050000      -0.91290000
H       -3.63120000      -2.18810000      -0.31470000
H       -2.67790000      -1.07330000      -2.08810000
