18
Properties=species:S:1:pos:R:3 gdb_15518=T pbc="F F F"
C       -0.11960000       1.50180000       0.10020000
C        0.05250000       0.02140000       0.01540000
C        0.06360000      -0.73150000      -1.10200000
C        0.32100000      -2.19900000      -0.79430000
C        0.11950000      -2.27660000       0.73750000
C        0.29890000      -0.82590000       1.24300000
C       -0.08740000      -0.26250000      -2.42890000
C       -0.21510000       0.09500000      -3.57390000
H        0.75690000       1.97180000       0.56540000
H       -0.26540000       1.94570000      -0.88720000
H       -0.98000000       1.76200000       0.73010000
H       -0.35060000      -2.86460000      -1.34560000
H        1.34250000      -2.47280000      -1.09100000
H       -0.89950000      -2.61250000       0.95330000
H        0.80130000      -2.98220000       1.21850000
H        1.31510000      -0.64500000       1.62500000
H       -0.38060000      -0.57600000       2.06690000
H       -0.32680000       0.41960000      -4.57830000
