19
Properties=species:S:1:pos:R:3 gdb_55027=T pbc="F F F"
C        0.18600000       1.36170000      -0.07180000
C        0.09950000      -0.15350000      -0.05490000
O        0.45380000      -0.83650000       0.87990000
N       -0.50680000      -0.70060000      -1.18440000
C       -0.13350000      -0.53180000      -2.57200000
C       -0.09150000      -1.88280000      -1.90080000
C        1.21850000      -2.54150000      -1.61210000
C        1.24450000      -3.88010000      -0.97980000
N        1.61680000      -3.72260000      -2.39750000
H        0.98770000       1.68620000      -0.74490000
H       -0.74540000       1.80540000      -0.43340000
H        0.40810000       1.71630000       0.93450000
H       -0.93520000      -0.28330000      -3.26320000
H        0.82430000      -0.06340000      -2.79150000
H       -0.90150000      -2.58020000      -2.12060000
H        2.03660000      -1.85610000      -1.40410000
H        2.06070000      -4.14690000      -0.31600000
H        0.29110000      -4.34150000      -0.73530000
H        0.84680000      -4.01930000      -2.99420000
