14
Properties=species:S:1:pos:R:3 gdb_129213=T pbc="F F F"
N       -0.03030000       1.33640000      -0.24280000
C        0.04350000       0.07300000      -0.06930000
N        1.06580000      -0.85090000      -0.01450000
N        0.64020000      -2.14720000       0.20680000
C       -0.64550000      -2.04460000       0.27410000
N       -1.07960000      -0.74720000       0.11660000
C       -2.42360000      -0.21720000       0.11570000
C       -3.17290000      -0.57030000       1.32660000
N       -3.77300000      -0.87160000       2.26600000
H        0.88080000       1.76850000      -0.35710000
H        2.04950000      -0.65920000      -0.06710000
H       -1.31490000      -2.87210000       0.44750000
H       -2.31320000       0.87090000       0.04240000
H       -2.98740000      -0.55740000      -0.76120000
