13
Properties=species:S:1:pos:R:3 gdb_131045=T pbc="F F F"
O       -0.44550000       0.09040000       0.00430000
C       -0.11240000       1.24240000       0.00850000
N        1.18340000       1.74340000       0.00010000
C        2.40700000       1.09110000      -0.01410000
N        3.46270000       1.92510000      -0.01560000
C        4.63900000       1.32390000      -0.03010000
C        4.72780000      -0.06890000      -0.04240000
N        3.63490000      -0.82660000      -0.04040000
N        2.44230000      -0.24610000      -0.02620000
H       -0.82910000       2.08800000       0.02010000
H        1.27940000       2.74930000       0.00680000
H        5.52480000       1.95460000      -0.03180000
H        5.67800000      -0.59090000      -0.05400000
