16
Properties=species:S:1:pos:R:3 gdb_127101=T pbc="F F F"
C        0.01290000       1.44090000       0.00950000
N       -0.00500000      -0.01330000      -0.01740000
C        1.27400000      -0.70880000       0.07730000
C       -1.17840000      -0.68480000      -0.01630000
C       -2.44350000      -0.05040000      -0.01540000
N       -3.54580000      -0.76130000      -0.05420000
N       -3.46890000      -2.09950000      -0.08600000
N       -2.30030000      -2.69360000      -0.05120000
N       -1.16050000      -2.03010000      -0.01240000
H        1.03980000       1.77680000      -0.13840000
H       -0.59760000       1.86340000      -0.79540000
H       -0.34410000       1.84350000       0.96650000
H        1.76740000      -0.48260000       1.03040000
H        1.10150000      -1.78050000       0.01040000
H        1.93190000      -0.39350000      -0.73950000
H       -2.56610000       1.02690000       0.02470000
