23
Properties=species:S:1:pos:R:3 gdb_116442=T pbc="F F F"
C       -0.20080000       1.58980000      -0.06650000
C        0.03470000       0.07450000       0.00810000
O        0.68700000      -0.41720000      -1.16390000
C        2.05770000      -0.06380000      -1.28010000
C        2.87920000      -0.56640000      -0.09260000
C        2.26750000      -0.06260000       1.22000000
C        0.77210000      -0.41560000       1.27400000
C        0.10760000       0.05710000       2.56380000
O        0.69390000      -0.66250000       3.64110000
H        0.71510000       2.17230000       0.06610000
H       -0.62520000       1.84000000      -1.04280000
H       -0.91070000       1.90850000       0.70310000
H       -0.94760000      -0.41220000      -0.02220000
H        2.39600000      -0.51460000      -2.21810000
H        2.17420000       1.02760000      -1.38100000
H        2.88120000      -1.66340000      -0.10140000
H        3.91980000      -0.23770000      -0.19650000
H        2.77240000      -0.49680000       2.08700000
H        2.39830000       1.02620000       1.29510000
H        0.69240000      -1.51100000       1.26710000
H        0.25280000       1.14130000       2.69170000
H       -0.97910000      -0.12550000       2.51370000
H        0.33980000      -0.31420000       4.46420000
