25
Properties=species:S:1:pos:R:3 gdb_58469=T pbc="F F F"
C       -0.86500000       0.91220000      -0.10050000
C       -1.03420000      -0.23390000      -1.11120000
C       -2.08480000       0.10000000      -2.18180000
C        0.30910000      -0.63040000      -1.73250000
C        0.90610000       0.40300000      -2.67860000
O        1.24980000      -1.20540000      -0.80190000
C        0.72150000      -2.05750000      -1.83540000
C       -0.15540000      -3.19900000      -1.34810000
C        1.72230000      -2.51970000      -2.88040000
H       -0.09900000       0.66120000       0.63850000
H       -0.57800000       1.85210000      -0.58400000
H       -1.80600000       1.09410000       0.42880000
H       -1.40280000      -1.09370000      -0.54710000
H       -1.81300000       0.99410000      -2.75250000
H       -2.21260000      -0.72460000      -2.89140000
H       -3.05610000       0.29300000      -1.71510000
H        0.72930000       1.41800000      -2.31150000
H        1.98500000       0.27220000      -2.76090000
H        0.46800000       0.33210000      -3.67940000
H        0.47070000      -4.06550000      -1.10780000
H       -0.71280000      -2.93940000      -0.44870000
H       -0.86270000      -3.50960000      -2.12510000
H        2.37980000      -3.28160000      -2.44740000
H        1.20130000      -2.97850000      -3.72840000
H        2.34750000      -1.71240000      -3.25890000
