10
Properties=species:S:1:pos:R:3 gdb_21741=T pbc="F F F"
O       -0.08250000       1.54020000       0.01030000
C        1.27070000       1.78710000      -0.00110000
C        2.01640000       0.67130000      -0.01300000
C        1.05550000      -0.41170000      -0.00980000
C       -0.29700000       0.16320000       0.00560000
O       -1.38590000      -0.33360000       0.01340000
N        1.41090000      -2.81890000      -0.02520000
N        1.26300000      -1.69620000      -0.01790000
H        1.54770000       2.82880000       0.00120000
H        3.09060000       0.59260000      -0.02310000
