13
Properties=species:S:1:pos:R:3 gdb_25339=T pbc="F F F"
N       -0.16450000       1.33570000       0.00830000
C        0.00040000       0.07610000       0.00140000
N       -1.15630000      -0.74270000       0.00300000
C       -1.07760000      -2.08130000      -0.00380000
N        0.04690000      -2.73370000      -0.01250000
C        1.16120000      -1.91610000      -0.01400000
C        2.46580000      -2.68910000      -0.02410000
O        3.55160000      -2.17850000      -0.02700000
N        1.20470000      -0.62130000      -0.00790000
H        0.74770000       1.78940000       0.00610000
H       -2.04550000      -0.26180000       0.00970000
H       -2.02140000      -2.62220000      -0.00190000
H        2.30960000      -3.78690000      -0.02860000
