21
Properties=species:S:1:pos:R:3 gdb_102295=T pbc="F F F"
C       -0.23700000       1.54910000       0.24890000
C       -0.02980000       0.06780000      -0.03900000
C        1.01530000      -0.56720000       0.87840000
O       -1.31680000      -0.55310000       0.13280000
C       -1.50100000      -1.79390000      -0.51030000
C       -2.78910000      -2.40850000       0.04910000
N       -2.58880000      -2.68700000       1.46700000
C       -1.58730000      -1.62740000      -1.97940000
N       -1.65020000      -1.49420000      -3.12570000
H        0.70040000       2.09810000       0.12220000
H       -0.98370000       1.96990000      -0.42880000
H       -0.58420000       1.69200000       1.27730000
H        0.27710000      -0.05340000      -1.08820000
H        1.98630000      -0.08310000       0.73510000
H        0.72160000      -0.45130000       1.92640000
H        1.14670000      -1.63420000       0.67640000
H       -0.67370000      -2.48480000      -0.29540000
H       -3.61720000      -1.71910000      -0.18100000
H       -2.98310000      -3.34770000      -0.47910000
H       -2.45380000      -1.80690000       1.95480000
H       -3.42090000      -3.11780000       1.85600000
