18
Properties=species:S:1:pos:R:3 gdb_99065=T pbc="F F F"
C        0.03270000       1.44150000       0.10970000
N       -0.04200000       0.00320000      -0.08020000
C       -1.24900000      -0.64500000       0.01690000
O       -2.32210000      -0.07370000       0.11410000
N       -1.14600000      -2.03090000      -0.01030000
C       -2.36820000      -2.81370000      -0.10520000
C       -2.83360000      -3.06660000      -1.55050000
C       -2.19200000      -4.08210000       0.62130000
N       -2.04970000      -5.09270000       1.16270000
H        0.83470000       1.85690000      -0.50670000
H       -0.92020000       1.86980000      -0.20100000
H        0.20950000       1.71970000       1.15650000
H        0.78880000      -0.52900000       0.12500000
H       -0.31760000      -2.44260000      -0.41340000
H       -3.13190000      -2.22250000       0.40940000
H       -3.01480000      -2.10350000      -2.03260000
H       -2.07490000      -3.61620000      -2.11540000
H       -3.75890000      -3.64890000      -1.56220000
