14
Properties=species:S:1:pos:R:3 gdb_8249=T pbc="F F F"
O        0.29600000       0.15050000      -0.73370000
C        0.09240000       1.16940000      -0.15970000
C       -1.10180000       2.05520000       0.20070000
C       -0.02960000       2.94730000       0.85240000
C       -0.08510000       3.11860000       2.36740000
C        1.08600000       3.79660000       2.90780000
C        2.05420000       4.36510000       3.33400000
O        1.01080000       1.99400000       0.44290000
H       -1.63070000       2.47230000      -0.65720000
H       -1.81630000       1.58870000       0.88210000
H        0.14250000       3.90410000       0.35480000
H       -0.99240000       3.68810000       2.61010000
H       -0.19950000       2.13060000       2.83100000
H        2.91320000       4.85840000       3.71670000
