12
Properties=species:S:1:pos:R:3 gdb_25309=T pbc="F F F"
O        0.05570000      -0.08020000      -0.00270000
C        0.01480000       1.12640000       0.00850000
C        1.19690000       1.98940000       0.00280000
C        1.37940000       3.35470000       0.01350000
C        0.34590000       4.40830000       0.03560000
O        0.58570000       5.58870000       0.04340000
N        2.73710000       3.62750000       0.00020000
C        3.28970000       2.45890000      -0.01730000
O        2.43210000       1.41550000      -0.01720000
H       -0.94220000       1.68560000       0.02550000
H       -0.69680000       4.02610000       0.04380000
H        4.34160000       2.21790000      -0.03200000
