16
Properties=species:S:1:pos:R:3 gdb_26581=T pbc="F F F"
C        0.02280000       1.50810000      -0.06540000
C        0.00690000       0.00710000      -0.05340000
C       -1.15440000      -0.70620000       0.00450000
N       -2.42290000      -0.16430000       0.01820000
C       -1.10180000      -2.16450000       0.01440000
N       -2.14870000      -2.88190000       0.09410000
O        0.16060000      -2.71700000      -0.06230000
C        1.25150000      -1.90710000      -0.11790000
N        1.23920000      -0.63670000      -0.11290000
H        1.02510000       1.86370000      -0.30840000
H       -0.68370000       1.90660000      -0.80330000
H       -0.25540000       1.92940000       0.91070000
H       -2.52530000       0.74350000       0.44360000
H       -3.13550000      -0.83630000       0.27070000
H       -1.92410000      -3.87540000       0.09290000
H        2.16480000      -2.48840000      -0.16870000
