14
Properties=species:S:1:pos:R:3 gdb_127191=T pbc="F F F"
C       -0.01590000       1.49050000      -0.01310000
N       -0.00900000       0.02840000      -0.01300000
C       -1.19730000      -0.65370000      -0.12890000
O       -2.29610000      -0.16180000      -0.23570000
N       -1.01370000      -2.03900000      -0.11160000
N        0.15220000      -2.70850000       0.00140000
N        1.22150000      -2.05980000       0.10580000
C        1.21750000      -0.63570000       0.10630000
N        2.29200000       0.03510000       0.21150000
H        0.59270000       1.85900000      -0.84170000
H       -1.04850000       1.81710000      -0.11370000
H        0.42110000       1.85840000       0.91770000
H       -1.83580000      -2.61820000      -0.19190000
H        3.07510000      -0.61310000       0.28740000
