14
Properties=species:S:1:pos:R:3 gdb_45079=T pbc="F F F"
O       -0.03680000       0.03790000      -0.40130000
C       -0.01660000       1.16940000      -0.03550000
O       -1.11950000       1.84860000       0.37520000
C       -0.79500000       3.15370000       0.81920000
C        0.04160000       3.24400000       2.05710000
C        0.68670000       3.37850000       0.69110000
C        1.22470000       2.11170000       0.04940000
C        2.33280000       1.47530000       0.75530000
N        3.21270000       0.99700000       1.33070000
H       -1.55480000       3.87740000       0.55680000
H       -0.03440000       4.14810000       2.64990000
H        0.20690000       2.33580000       2.62790000
H        1.09610000       4.33070000       0.38180000
H        1.54060000       2.30460000      -0.98280000
