17
Properties=species:S:1:pos:R:3 gdb_92307=T pbc="F F F"
C        0.08560000       1.55000000      -0.12800000
C        0.04700000       0.04880000       0.04540000
O        0.92590000      -0.66100000      -0.87020000
C        1.45930000      -1.47280000       0.19370000
C        2.94940000      -1.24020000       0.43220000
O        3.05060000      -0.11400000       1.31870000
C        1.85180000       0.20910000       1.88080000
O        1.74610000       1.05680000       2.71850000
C        0.74670000      -0.63010000       1.25780000
H        1.10570000       1.93370000      -0.04570000
H       -0.30660000       1.81780000      -1.11390000
H       -0.53070000       2.03610000       0.63450000
H       -0.98070000      -0.32300000      -0.06270000
H        1.19790000      -2.52920000       0.07960000
H        3.42720000      -2.10260000       0.91050000
H        3.47210000      -1.00080000      -0.49690000
H        0.11050000      -1.08370000       2.01540000
