16
Properties=species:S:1:pos:R:3 gdb_12995=T pbc="F F F"
O        0.15920000       1.33640000      -0.36980000
C        0.00910000      -0.00380000      -0.07650000
C       -0.38290000      -0.98410000      -1.16450000
C       -1.31400000      -0.75920000      -0.00420000
C       -1.23370000      -1.77750000       1.13520000
C        0.26500000      -1.85580000       1.52020000
C        0.84650000      -0.53090000       1.03550000
O        1.75960000       0.10180000       1.51820000
H        0.90360000       1.62760000       0.17980000
H       -0.64760000      -0.49730000      -2.09670000
H        0.13920000      -1.92980000      -1.27710000
H       -2.24500000      -0.23540000      -0.18690000
H       -1.81630000      -1.41890000       1.98990000
H       -1.64260000      -2.75130000       0.84680000
H        0.44140000      -1.97860000       2.58990000
H        0.78020000      -2.68040000       1.01320000
