15
Properties=species:S:1:pos:R:3 gdb_131785=T pbc="F F F"
O        0.09200000       1.43650000       0.21880000
C        0.04430000       0.02760000       0.26140000
C       -1.33900000      -0.51710000      -0.16480000
C       -1.39040000      -2.01110000      -0.07810000
C       -1.94640000      -2.71220000       0.99350000
N       -1.93130000      -4.03440000       1.02450000
N       -1.36250000      -4.68300000       0.00820000
N       -0.83430000      -4.03570000      -1.00520000
N       -0.83910000      -2.70820000      -1.07120000
H        0.09850000       1.71130000      -0.70380000
H        0.82070000      -0.43630000      -0.36300000
H        0.24650000      -0.25180000       1.30090000
H       -2.10720000      -0.06730000       0.47130000
H       -1.53100000      -0.22160000      -1.20170000
H       -2.41740000      -2.20990000       1.83470000
