20
Properties=species:S:1:pos:R:3 gdb_54985=T pbc="F F F"
N       -0.02040000       1.14650000       0.56390000
C        0.03900000      -0.02910000      -0.13220000
O        1.05920000      -0.39750000      -0.69130000
C       -1.22960000      -0.81760000      -0.15090000
C       -1.46520000      -1.73500000      -1.34060000
C       -1.15090000      -2.33320000      -0.01980000
C        0.07950000      -3.13770000       0.42240000
C       -0.77860000      -3.73010000       1.57990000
C       -2.06010000      -3.15410000       0.90750000
H        0.82580000       1.68350000       0.65780000
H       -0.82900000       1.41920000       1.09320000
H       -2.10290000      -0.34630000       0.29220000
H       -2.47850000      -1.80570000      -1.72320000
H       -0.67710000      -1.72950000      -2.08660000
H        0.36490000      -3.88920000      -0.32000000
H        0.96940000      -2.56750000       0.69010000
H       -0.74400000      -4.81330000       1.71300000
H       -0.56500000      -3.25700000       2.54170000
H       -2.75080000      -2.59720000       1.54730000
H       -2.63080000      -3.91400000       0.36370000
