19
Properties=species:S:1:pos:R:3 gdb_121163=T pbc="F F F"
C        0.75410000       1.18120000       0.09030000
O        0.79170000      -0.20030000      -0.18520000
C       -0.05210000      -0.57390000      -1.25120000
C        0.04890000      -2.08090000      -1.41130000
O       -0.75270000      -2.54770000      -2.52390000
C        0.37960000      -3.18110000      -3.16730000
C        1.30110000      -2.65140000      -2.07440000
C        2.68300000      -2.18030000      -2.08180000
O        2.29530000      -3.40080000      -1.42230000
H        1.08090000       1.77930000      -0.77480000
H       -0.25800000       1.51040000       0.37210000
H        1.43260000       1.36630000       0.92620000
H       -1.09990000      -0.29590000      -1.04920000
H        0.24580000      -0.07740000      -2.18970000
H       -0.21290000      -2.58210000      -0.47050000
H        0.29040000      -4.27420000      -3.18610000
H        0.53930000      -2.80700000      -4.18540000
H        3.29610000      -2.30950000      -2.97270000
H        2.96590000      -1.36630000      -1.41810000
