18
Properties=species:S:1:pos:R:3 gdb_65678=T pbc="F F F"
C        0.01370000       1.59960000       0.04250000
C        0.01740000       0.09500000      -0.04940000
O       -1.02240000      -0.54410000       0.66980000
C       -2.25400000      -0.51760000       0.10950000
N       -3.23640000      -0.99630000       0.73860000
C        0.46220000      -0.72790000      -1.25610000
C        1.71710000      -0.11620000      -1.86450000
O        2.37080000      -0.06650000      -0.56330000
C        1.26260000      -0.73610000       0.03330000
H        0.97380000       2.00030000      -0.28830000
H       -0.78190000       2.04760000      -0.56220000
H       -0.13870000       1.89650000       1.08440000
H       -2.26970000      -0.06590000      -0.89030000
H       -4.08230000      -0.90910000       0.17910000
H       -0.16290000      -1.49050000      -1.70000000
H        2.25230000      -0.80050000      -2.53140000
H        1.63930000       0.87160000      -2.33220000
H        1.44340000      -1.48690000       0.79330000
