19
Properties=species:S:1:pos:R:3 gdb_87280=T pbc="F F F"
C        0.08590000       1.52120000      -0.01730000
C        0.11560000       0.01150000       0.04170000
C        1.36230000      -0.76800000      -0.19660000
C        0.76780000      -0.77530000       1.20450000
C        1.47390000       0.00630000       2.25590000
O        2.31560000       0.85000000       2.04110000
C        0.05420000      -2.01620000       1.65210000
C        0.53540000      -2.88570000       2.73380000
O       -0.56820000      -1.99690000       2.93970000
H        1.00780000       1.95480000       0.37380000
H       -0.03130000       1.84670000      -1.05670000
H       -0.75580000       1.92400000       0.55540000
H       -0.80280000      -0.46380000      -0.29720000
H        1.31390000      -1.69390000      -0.76020000
H        2.28990000      -0.21290000      -0.28970000
H        1.14820000      -0.22250000       3.29040000
H       -0.55520000      -2.48100000       0.87400000
H        0.28620000      -3.94560000       2.73110000
H        1.44960000      -2.62690000       3.26680000
