20
Properties=species:S:1:pos:R:3 gdb_13284=T pbc="F F F"
C        0.17850000       1.46140000       0.05120000
C        0.03500000      -0.04940000      -0.01790000
O        0.67220000      -0.51020000      -1.19290000
C        0.60170000      -1.90800000      -1.35950000
C        1.34580000      -2.27370000      -2.62830000
C        2.88350000      -2.16690000      -2.54960000
O        3.03150000      -3.60210000      -2.62920000
C        1.61530000      -3.78090000      -2.82740000
H        1.23440000       1.74560000       0.07400000
H       -0.28350000       1.93110000      -0.82180000
H       -0.30560000       1.84970000       0.95220000
H        0.48770000      -0.52290000       0.86990000
H       -1.03000000      -0.33760000      -0.02630000
H        1.05480000      -2.42550000      -0.49500000
H       -0.44950000      -2.24160000      -1.42080000
H        0.89370000      -1.76320000      -3.48100000
H        3.36400000      -1.65930000      -3.39510000
H        3.28320000      -1.75830000      -1.61400000
H        1.17470000      -4.45240000      -2.07820000
H        1.38480000      -4.16990000      -3.82750000
