15
Properties=species:S:1:pos:R:3 gdb_20803=T pbc="F F F"
C        0.06340000       1.61450000      -0.14600000
C       -0.02380000       0.09080000       0.04430000
C       -1.42430000      -0.42820000       0.11040000
C       -2.16910000      -0.89840000       1.17170000
N       -1.85340000      -1.10740000       2.48690000
O       -3.37430000      -1.24610000       0.76010000
N       -3.38260000      -0.96500000      -0.70550000
N       -2.25280000      -0.51000000      -0.97660000
H        1.10580000       1.94140000      -0.21240000
H       -0.44850000       1.91410000      -1.06480000
H       -0.40930000       2.14570000       0.68660000
H        0.50270000      -0.40730000      -0.77800000
H        0.50680000      -0.20280000       0.95870000
H       -1.10560000      -0.53890000       2.85270000
H       -2.64320000      -1.18760000       3.10970000
