15
Properties=species:S:1:pos:R:3 gdb_22139=T pbc="F F F"
C        0.97060000       0.95600000       0.11610000
C       -0.17960000      -0.02050000       0.10050000
N       -1.06330000      -0.11620000       1.03320000
O       -0.81080000       0.80020000       2.04990000
C       -0.32530000      -0.90790000      -1.00400000
C       -0.38870000      -1.62860000      -1.96730000
C       -0.49520000      -2.51680000      -3.12040000
C        0.57100000      -2.30630000      -4.10890000
N        1.40390000      -2.15000000      -4.89280000
H        1.58930000       0.79130000       1.00360000
H        1.58410000       0.85160000      -0.77850000
H        0.59100000       1.98050000       0.18010000
H       -1.52900000       0.62550000       2.66810000
H       -0.46500000      -3.56660000      -2.80000000
H       -1.46200000      -2.37910000      -3.62260000
