19
Properties=species:S:1:pos:R:3 gdb_108325=T pbc="F F F"
C       -0.09670000       1.43770000      -0.09280000
O       -0.07990000       0.02300000      -0.04410000
C        0.68210000      -0.55570000      -1.04910000
C        0.15240000      -0.58070000      -2.49700000
O        0.46310000      -1.98960000      -2.60670000
C        0.78600000      -2.09840000      -1.20830000
C        2.29820000      -2.03090000      -0.91650000
O        3.09690000      -2.71960000      -1.83760000
C        2.24020000      -0.46500000      -0.96320000
H        0.91190000       1.86220000       0.01370000
H       -0.53220000       1.80810000      -1.03230000
H       -0.71460000       1.77950000       0.74010000
H       -0.92940000      -0.40100000      -2.56420000
H        0.67800000       0.02060000      -3.24790000
H        0.17210000      -2.83750000      -0.68800000
H        2.47620000      -2.36780000       0.11630000
H        4.01580000      -2.63180000      -1.56560000
H        2.71890000      -0.03100000      -1.84450000
H        2.61150000       0.02720000      -0.06170000
