20
Properties=species:S:1:pos:R:3 gdb_36807=T pbc="F F F"
N       -0.05950000      -1.11760000      -0.00550000
C       -0.02690000       0.03620000       0.03320000
C        0.01890000       1.49900000       0.11380000
N        1.36730000       1.99690000      -0.12480000
C        1.45980000       3.44830000       0.00580000
C        2.88250000       3.91920000      -0.28920000
N        2.96380000       5.36910000      -0.18810000
C        3.32800000       5.91250000       1.11800000
C        4.29720000       5.93110000      -0.01150000
H       -0.64940000       1.90820000      -0.65440000
H       -0.40970000       1.79800000       1.08880000
H        2.00840000       1.54840000       0.52250000
H        0.77970000       3.90640000      -0.72180000
H        1.14870000       3.81280000       1.00250000
H        3.59060000       3.41320000       0.39620000
H        3.15380000       3.62270000      -1.30780000
H        2.80860000       6.81790000       1.41760000
H        3.52380000       5.20950000       1.92690000
H        5.13800000       5.24130000       0.04540000
H        4.49810000       6.85030000      -0.55400000
