15
Properties=species:S:1:pos:R:3 gdb_47618=T pbc="F F F"
N       -0.06260000       1.26900000       0.27530000
C       -0.00400000       0.03440000      -0.00200000
O        1.17470000      -0.61000000      -0.22570000
C        1.13520000      -1.85720000      -0.93270000
C        0.13920000      -2.82710000      -0.30840000
C       -1.17360000      -2.13440000      -0.11370000
C       -1.23370000      -0.79520000      -0.01030000
C       -2.48810000      -0.12710000       0.15350000
N       -3.52950000       0.36180000       0.27390000
H        0.87170000       1.68190000       0.25650000
H        0.86810000      -1.66770000      -1.98030000
H        2.15650000      -2.24040000      -0.89920000
H        0.02080000      -3.70350000      -0.95510000
H        0.51100000      -3.19990000       0.65630000
H       -2.08230000      -2.72360000      -0.05010000
