19
Properties=species:S:1:pos:R:3 gdb_102487=T pbc="F F F"
C       -0.09790000       1.30830000      -0.04010000
O        0.22200000      -0.07050000       0.02380000
C        0.73640000      -0.61800000      -1.16520000
C        1.30050000      -1.99580000      -0.76150000
O        2.26720000      -1.85410000       0.24940000
C       -0.31860000      -0.75880000      -2.26150000
O       -1.50700000      -0.69640000      -2.03180000
C        0.15150000      -0.98390000      -3.69440000
O       -0.92970000      -1.15990000      -4.55770000
H        0.77590000       1.90630000      -0.33860000
H       -0.92250000       1.49920000      -0.73610000
H       -0.40540000       1.60710000       0.96410000
H        1.56950000      -0.00360000      -1.54810000
H        0.45860000      -2.62990000      -0.44290000
H        1.78900000      -2.47350000      -1.61520000
H        1.85330000      -1.30980000       0.93090000
H        0.76470000      -0.11290000      -3.98530000
H        0.82740000      -1.85390000      -3.72350000
H       -1.71790000      -1.04070000      -4.00310000
