15
Properties=species:S:1:pos:R:3 gdb_133079=T pbc="F F F"
C       -0.06650000       1.44810000       0.10170000
N        0.02460000       0.01480000      -0.04830000
C        0.61950000      -0.62140000      -1.08480000
N        0.60250000      -1.97240000      -1.03440000
C        1.18020000      -2.60530000      -2.04240000
N        1.78270000      -2.07140000      -3.11120000
C        1.78000000      -0.75260000      -3.12580000
F        2.36720000      -0.17870000      -4.16800000
C        1.22280000       0.05940000      -2.15640000
H        0.92430000       1.91730000       0.15750000
H       -0.61790000       1.91060000      -0.72700000
H       -0.59890000       1.67110000       1.02750000
H       -0.36410000      -0.59160000       0.65470000
H        1.16490000      -3.69200000      -1.99900000
H        1.26020000       1.13620000      -2.23740000
