23
Properties=species:S:1:pos:R:3 gdb_94695=T pbc="F F F"
C       -0.78210000       1.25840000       0.17060000
C        0.09110000       0.01900000      -0.04970000
C        0.95960000       0.17280000      -1.32410000
C        2.24970000      -0.68040000      -1.29500000
C        2.76190000      -0.86460000       0.14230000
O        4.05820000      -1.40590000       0.19920000
C        1.71260000      -1.64600000       0.95770000
C        0.99790000      -0.28260000       1.16190000
C        2.39960000       0.38290000       1.01050000
H       -0.16470000       2.14250000       0.37040000
H       -1.39530000       1.47570000      -0.71080000
H       -1.45640000       1.12270000       1.02270000
H       -0.57580000      -0.84530000      -0.17570000
H        0.36970000      -0.04810000      -2.21950000
H        1.24540000       1.22730000      -1.41050000
H        2.09130000      -1.67160000      -1.73580000
H        3.02190000      -0.18750000      -1.90220000
H        4.61810000      -0.91800000      -0.41440000
H        1.16610000      -2.44960000       0.45380000
H        2.15230000      -2.02230000       1.88490000
H        0.46790000      -0.13270000       2.10530000
H        2.95640000       0.35720000       1.95020000
H        2.47270000       1.38160000       0.57020000
