15
Properties=species:S:1:pos:R:3 gdb_75227=T pbc="F F F"
N        0.00630000       1.34800000       0.05660000
C       -0.02020000      -0.02160000      -0.01390000
N       -1.08850000      -0.72020000      -0.12600000
C       -0.74860000      -2.13780000       0.00900000
C        0.77950000      -2.22420000       0.11860000
O        1.43590000      -1.66550000      -1.03800000
C        1.24910000      -0.82060000       0.10500000
C        1.43030000      -3.30930000       0.78750000
C        1.92340000      -4.24880000       1.35250000
H        0.81730000       1.80720000      -0.32880000
H       -0.87010000       1.79430000      -0.17590000
H       -1.21810000      -2.55970000       0.90570000
H       -1.11430000      -2.70600000      -0.85340000
H        2.14840000      -0.46180000       0.59730000
H        2.37180000      -5.07410000       1.84830000
