19
Properties=species:S:1:pos:R:3 gdb_84956=T pbc="F F F"
C        0.42030000       1.66010000      -0.14350000
C        0.06310000       0.17410000      -0.01520000
C        0.59640000      -0.63350000      -1.22560000
C        2.02890000      -0.98880000      -0.85810000
O        2.93570000      -1.29840000      -1.58170000
C        2.13180000      -0.86670000       0.69410000
O        3.14200000      -1.01230000       1.32860000
C        0.74200000      -0.51710000       1.20560000
C        0.73510000       0.20300000       2.54990000
H        1.50520000       1.81320000      -0.20210000
H       -0.01930000       2.08130000      -1.05290000
H        0.04950000       2.24010000       0.70570000
H       -1.02400000       0.07950000       0.06100000
H        0.04070000      -1.57450000      -1.33940000
H        0.54340000      -0.10720000      -2.18150000
H        0.24120000      -1.49290000       1.32740000
H        1.25170000       1.16480000       2.49210000
H       -0.28640000       0.38190000       2.89870000
H        1.25640000      -0.40080000       3.29720000
