18
Properties=species:S:1:pos:R:3 gdb_47550=T pbc="F F F"
O       -0.02690000      -0.07500000       0.31000000
C       -0.04690000       1.12410000       0.09580000
C       -1.36810000       1.84130000      -0.19520000
C       -1.35990000       2.72900000      -1.42320000
O       -1.93400000       4.03800000      -1.28840000
C       -0.51980000       3.92960000      -1.45000000
C        0.36300000       4.23280000      -0.25690000
C        1.50590000       3.22250000      -0.14890000
N        1.11680000       1.85110000       0.18130000
H       -2.11700000       1.05290000      -0.28340000
H       -1.63590000       2.45000000       0.67380000
H       -1.59480000       2.23810000      -2.36680000
H       -0.14990000       4.28290000      -2.41350000
H        0.80240000       5.23120000      -0.35400000
H       -0.23720000       4.23810000       0.65630000
H        2.07000000       3.22730000      -1.09480000
H        2.20230000       3.55980000       0.62780000
H        1.89190000       1.23450000       0.38530000
