21
Properties=species:S:1:pos:R:3 gdb_112670=T pbc="F F F"
C        0.06060000       1.47980000       0.15150000
C       -0.04870000      -0.04580000       0.08490000
C       -1.48120000      -0.55480000      -0.14560000
C       -1.57210000      -2.10140000      -0.12610000
N       -1.94330000      -2.37790000       1.24760000
C       -2.21820000      -3.71220000       1.72010000
C       -2.53700000      -1.27220000       1.83450000
O       -3.07050000      -1.22950000       2.92320000
N       -2.41220000      -0.22460000       0.92930000
H        1.10110000       1.79310000       0.27560000
H       -0.32090000       1.94680000      -0.76370000
H       -0.50140000       1.89130000       0.99700000
H        0.57680000      -0.41950000      -0.73590000
H        0.33950000      -0.49370000       1.00800000
H       -1.85060000      -0.16110000      -1.09970000
H       -2.33580000      -2.46760000      -0.83070000
H       -0.61730000      -2.56980000      -0.39020000
H       -1.30590000      -4.31930000       1.72990000
H       -2.60590000      -3.62820000       2.73700000
H       -2.96590000      -4.22440000       1.09590000
H       -2.45610000       0.70680000       1.31080000
