21
Properties=species:S:1:pos:R:3 gdb_111156=T pbc="F F F"
C       -0.24790000       1.29990000       0.13480000
O        0.36560000       0.05900000      -0.13580000
C        0.85510000      -0.57360000       1.01100000
C       -0.11440000      -1.41940000       1.91480000
C       -0.19840000      -2.43520000       0.73110000
C        1.31230000      -2.04280000       0.82520000
C        1.15560000      -2.16840000       2.35250000
C        2.10370000      -1.98050000       3.48620000
C        1.36970000      -3.30750000       3.28400000
H        0.44310000       1.99140000       0.64180000
H       -0.54060000       1.73440000      -0.82400000
H       -1.14420000       1.18790000       0.76290000
H        1.54660000       0.08450000       1.55600000
H       -0.92410000      -1.06500000       2.55440000
H       -0.44500000      -3.46450000       0.99910000
H       -0.72600000      -2.09800000      -0.16010000
H        2.13810000      -2.39950000       0.20850000
H        3.16980000      -1.95960000       3.28190000
H        1.80210000      -1.36220000       4.32620000
H        0.58560000      -3.56180000       3.99060000
H        1.95350000      -4.15830000       2.94630000
