18
Properties=species:S:1:pos:R:3 gdb_117435=T pbc="F F F"
C       -0.14810000       1.37880000       0.07310000
O       -0.04070000      -0.02510000       0.04950000
C       -1.28360000      -0.66250000       0.04770000
C       -1.06810000      -2.17310000       0.18330000
O       -0.15430000      -2.65630000       0.81770000
N       -2.02840000      -2.92120000      -0.43950000
C       -2.08670000      -4.36830000      -0.28500000
C       -3.41900000      -4.83270000       0.08890000
C       -4.52580000      -5.20590000       0.37020000
H        0.86790000       1.77920000       0.08620000
H       -0.67250000       1.76690000      -0.81490000
H       -0.68330000       1.73100000       0.96910000
H       -1.90320000      -0.33820000       0.90370000
H       -1.85520000      -0.42860000      -0.86820000
H       -2.77030000      -2.46860000      -0.94780000
H       -1.76780000      -4.86980000      -1.20890000
H       -1.34740000      -4.61890000       0.48270000
H       -5.49660000      -5.54590000       0.63440000
