12
Properties=species:S:1:pos:R:3 gdb_21520=T pbc="F F F"
N        0.03890000       1.35180000       0.14070000
C       -0.04820000       0.00430000       0.04820000
C       -1.12240000      -0.87330000       0.01720000
C       -2.53800000      -0.58600000       0.02220000
O       -3.41800000      -1.42110000      -0.00900000
C       -0.47540000      -2.14500000      -0.02380000
N        0.82260000      -2.07010000      -0.02020000
O        1.10100000      -0.66450000       0.02560000
H        0.92900000       1.76910000      -0.08200000
H       -0.77520000       1.89480000      -0.09410000
H       -2.79230000       0.50100000       0.05780000
H       -0.95220000      -3.11460000      -0.05620000
