18
Properties=species:S:1:pos:R:3 gdb_82657=T pbc="F F F"
C       -0.14900000       1.61580000      -0.00220000
C        0.03540000       0.11290000      -0.07000000
C        0.83790000      -0.62300000      -1.17140000
C        2.20760000       0.08280000      -1.08530000
C        2.41470000      -0.26250000       0.41920000
N        0.97320000      -0.53590000       0.92310000
C        1.05660000      -1.72980000      -0.06400000
C        2.53780000      -1.78380000       0.27930000
O        3.36170000      -2.62260000       0.47920000
H        0.79500000       2.16450000      -0.04490000
H       -0.78310000       1.96320000      -0.82530000
H       -0.64260000       1.88260000       0.93770000
H       -0.93510000      -0.37560000       0.07360000
H        0.42990000      -0.84350000      -2.15900000
H        2.97610000      -0.36880000      -1.71970000
H        2.16310000       1.14910000      -1.31040000
H        3.06210000       0.34790000       1.04290000
H        0.34950000      -2.55080000       0.04020000
