12
Properties=species:S:1:pos:R:3 gdb_130490=T pbc="F F F"
O       -0.02190000       1.26650000       0.00910000
C        1.13890000       1.94080000       0.00160000
N        2.34020000       1.46830000      -0.01240000
C        2.38760000       0.11290000      -0.02020000
N        3.43120000      -0.66330000      -0.03440000
C        2.89590000      -1.96360000      -0.03620000
C        1.52830000      -2.03840000      -0.02350000
C        1.11710000      -0.66860000      -0.01220000
N       -0.05960000      -0.12990000       0.00190000
H        0.94260000       3.00830000       0.00930000
H        3.58430000      -2.79930000      -0.04730000
H        0.90030000      -2.91390000      -0.02220000
