16
Properties=species:S:1:pos:R:3 gdb_78065=T pbc="F F F"
C       -0.31380000       1.28720000      -0.44170000
N       -0.12940000      -0.04760000       0.08890000
C       -1.06350000      -1.16960000       0.14680000
C       -0.95670000      -2.11060000      -1.02420000
C       -0.60900000      -1.76760000      -2.43840000
O       -0.40860000      -0.66320000      -2.87770000
C        0.09980000      -2.13280000       0.10410000
C        0.98180000      -0.87560000      -0.01070000
O        2.15120000      -0.64700000      -0.14310000
H        0.67050000       1.76020000      -0.47670000
H       -0.73180000       1.26230000      -1.45240000
H       -0.95930000       1.87490000       0.21840000
H       -1.90440000      -1.16460000       0.82920000
H       -1.60730000      -2.98300000      -0.95850000
H       -0.53600000      -2.66140000      -3.09720000
H        0.28620000      -3.02050000       0.69110000
