20
Properties=species:S:1:pos:R:3 gdb_78754=T pbc="F F F"
C       -0.13660000       1.39530000       0.03820000
N        0.00740000      -0.05160000      -0.03480000
C        0.76360000      -0.46500000      -1.23290000
C        2.05440000      -0.73170000      -0.46190000
C        1.16600000      -0.55110000       0.80190000
C        0.82790000      -1.97670000       1.21330000
O        0.67110000      -2.66730000      -0.03160000
C        1.28100000      -1.88040000      -1.03680000
C        1.74980000      -2.68440000      -2.21420000
H        0.80980000       1.94640000      -0.12010000
H       -0.85250000       1.72810000      -0.72080000
H       -0.53580000       1.67070000       1.01980000
H        0.58480000      -0.01300000      -2.20370000
H        3.10050000      -0.49550000      -0.61570000
H        1.47890000       0.12280000       1.59950000
H        1.63410000      -2.43390000       1.80780000
H       -0.11350000      -2.03430000       1.76650000
H        0.91400000      -3.23410000      -2.65800000
H        2.17800000      -2.03410000      -2.98250000
H        2.51080000      -3.40910000      -1.90840000
