18
Properties=species:S:1:pos:R:3 gdb_86966=T pbc="F F F"
C       -0.01020000       1.58700000       0.01240000
C        0.08210000       0.06170000       0.05690000
C        0.67890000      -0.52300000      -1.22860000
C        0.95240000      -2.02100000      -1.03520000
O        1.77410000      -2.23070000       0.13330000
C        1.58580000      -1.36360000       1.16490000
N        0.85490000      -0.33760000       1.23710000
C       -0.27440000      -2.81220000      -0.93620000
C       -1.28890000      -3.45250000      -0.87220000
H        0.98380000       2.03060000      -0.10720000
H       -0.63900000       1.91720000      -0.82090000
H       -0.43570000       1.96360000       0.94580000
H       -0.93250000      -0.34070000       0.18310000
H        0.01530000      -0.37880000      -2.08570000
H        1.63140000      -0.02850000      -1.45190000
H        1.55580000      -2.40500000      -1.86400000
H        2.20180000      -1.67420000       2.00710000
H       -2.18130000      -4.02570000      -0.81150000
