19
Properties=species:S:1:pos:R:3 gdb_36360=T pbc="F F F"
C        0.01450000      -0.87890000      -0.86260000
C       -0.01530000       0.19390000      -0.32160000
C       -0.01980000       1.49240000       0.34430000
C        1.37310000       2.10020000       0.43200000
N        1.87410000       2.82840000      -0.74180000
C        1.62600000       3.56610000       0.50650000
C        0.53640000       4.59960000       0.45400000
C        0.65450000       5.74200000      -0.48630000
N       -0.34000000       4.68140000      -0.72140000
H        0.02590000      -1.82300000      -1.34810000
H       -0.69390000       2.18110000      -0.17380000
H       -0.41690000       1.37910000       1.36200000
H        2.08850000       1.46580000       0.95240000
H        2.86390000       2.65890000      -0.88900000
H        2.49190000       3.86210000       1.09840000
H        0.02580000       4.76450000       1.40150000
H        0.24580000       6.71290000      -0.22120000
H        1.52950000       5.77180000      -1.13100000
H        0.04460000       4.04770000      -1.42300000
