14
Properties=species:S:1:pos:R:3 gdb_24874=T pbc="F F F"
N       -0.19680000       1.31830000       0.00910000
C        0.01660000       0.05580000       0.00100000
N       -1.10800000      -0.78890000       0.00260000
C       -1.04420000      -2.14970000      -0.00540000
N        0.07170000      -2.82360000      -0.01520000
C        1.21910000      -2.06300000      -0.01730000
C        1.25110000      -0.70770000      -0.00990000
C       -2.29920000      -2.83540000      -0.00220000
C       -3.37140000      -3.37860000       0.00070000
H        0.68600000       1.82530000       0.00700000
H       -2.00660000      -0.32490000       0.01010000
H        2.14170000      -2.63610000      -0.02550000
H        2.19000000      -0.16700000      -0.01210000
H       -4.30960000      -3.87810000       0.00320000
