19
Properties=species:S:1:pos:R:3 gdb_80128=T pbc="F F F"
C       -1.00000000       1.15700000       0.24400000
C       -0.11550000      -0.06530000       0.04530000
C        0.61510000      -0.35120000      -1.32010000
C        0.99600000       0.85670000      -2.13600000
C        2.29410000       1.15480000      -2.05160000
C        3.06960000       0.19770000      -1.17340000
C        1.95150000      -0.66660000      -0.55840000
C        1.27800000      -0.07520000       0.69610000
O        1.70480000       0.34210000       1.73480000
H       -0.49720000       2.06430000      -0.10330000
H       -1.94480000       1.05930000      -0.30030000
H       -1.23060000       1.28720000       1.30560000
H       -0.64460000      -0.97360000       0.36550000
H        0.15890000      -1.14540000      -1.91730000
H        0.27380000       1.40960000      -2.72710000
H        2.77400000       1.98200000      -2.56400000
H        3.78320000      -0.39580000      -1.75930000
H        3.65040000       0.71000000      -0.39730000
H        2.20800000      -1.72180000      -0.43960000
