17
Properties=species:S:1:pos:R:3 gdb_108156=T pbc="F F F"
C       -0.24340000       1.45670000       0.22570000
N        0.20670000       0.08630000      -0.01120000
C        0.86910000      -0.54650000       1.05600000
C        2.31310000      -0.11550000       1.43590000
N        2.61570000      -0.95000000       2.63860000
C        1.70850000      -1.82980000       2.56600000
O        0.64510000      -1.91310000       3.46630000
C       -0.06070000      -1.38520000       2.24200000
C        0.84090000      -2.00670000       1.27700000
H        0.61720000       2.09520000       0.44410000
H       -0.71740000       1.83950000      -0.68160000
H       -0.95270000       1.54710000       1.06300000
H       -0.53560000      -0.48530000      -0.39470000
H        2.98430000      -0.24840000       0.57420000
H        2.39360000       0.92260000       1.77230000
H       -1.14070000      -1.32980000       2.31920000
H        0.76390000      -2.86590000       0.61780000
