21
Properties=species:S:1:pos:R:3 gdb_76193=T pbc="F F F"
C       -0.10090000       1.51120000       0.08770000
C        0.00910000       0.00030000       0.03920000
C       -1.21370000      -0.73160000      -0.47960000
C        1.37520000      -0.62400000      -0.28230000
O        2.51260000       0.17430000      -0.45180000
C        0.82350000      -0.68990000       1.10230000
C        1.44700000      -0.15260000       2.38340000
C        1.01370000      -1.51450000       2.96910000
O        0.42360000      -1.92060000       1.70980000
H        0.84080000       1.97300000       0.39380000
H       -0.36650000       1.91410000      -0.89760000
H       -0.88190000       1.82580000       0.78940000
H       -1.43160000      -0.44660000      -1.51570000
H       -1.07950000      -1.81550000      -0.43970000
H       -2.09550000      -0.49200000       0.12570000
H        1.36070000      -1.55060000      -0.85850000
H        2.46120000       0.59170000      -1.31840000
H        2.52150000       0.02610000       2.33040000
H        0.95370000       0.71960000       2.81680000
H        1.82950000      -2.18330000       3.26570000
H        0.26730000      -1.47740000       3.77030000
