16
Properties=species:S:1:pos:R:3 gdb_49373=T pbc="F F F"
N       -0.03880000       1.22630000      -0.31140000
C       -0.16220000      -0.04190000      -0.36410000
N       -1.35290000      -0.65260000      -0.06970000
C       -1.75330000      -2.07440000      -0.02620000
C       -3.20000000      -1.57120000       0.32990000
C       -2.62570000      -0.15870000       0.28180000
N       -3.10560000       0.98590000       0.48230000
C       -1.58380000      -2.81620000      -1.26400000
C       -1.43360000      -3.43500000      -2.28320000
H        0.90670000       1.50240000      -0.56670000
H        0.61970000      -0.75920000      -0.64040000
H       -1.27630000      -2.61130000       0.80190000
H       -3.94350000      -1.78210000      -0.43890000
H       -3.56920000      -1.89220000       1.30440000
H       -2.38480000       1.69800000       0.34940000
H       -1.30750000      -3.97920000      -3.18680000
