21
Properties=species:S:1:pos:R:3 gdb_105346=T pbc="F F F"
C        0.19970000       1.63110000       0.32130000
C       -0.04960000       0.13940000       0.05980000
C        0.65540000      -0.44730000      -1.17900000
C        2.23710000      -0.46950000      -1.18780000
C        2.18860000      -1.98500000      -1.40440000
C        1.46530000      -2.65270000      -0.27170000
C        0.65950000      -1.97530000      -1.34350000
C        0.17870000       0.23820000      -2.44040000
O       -0.38240000      -0.30720000      -3.35760000
H        1.27060000       1.85450000       0.37430000
H       -0.23480000       2.26970000      -0.45330000
H       -0.24650000       1.92850000       1.27500000
H        0.28130000      -0.43170000       0.93420000
H       -1.12760000      -0.04640000      -0.03130000
H        2.66450000       0.08430000      -2.02880000
H        2.72420000      -0.12830000      -0.26770000
H        2.83200000      -2.53260000      -2.08130000
H        1.44360000      -3.73730000      -0.30840000
H        1.52780000      -2.25060000       0.73690000
H       -0.04570000      -2.50720000      -1.96770000
H        0.40180000       1.32850000      -2.48390000
