18
Properties=species:S:1:pos:R:3 gdb_17691=T pbc="F F F"
C       -0.12850000       1.33350000      -0.22010000
C        1.27310000       0.90540000       0.03660000
N        0.17800000      -0.06190000       0.09100000
C       -0.20480000      -0.54300000       1.37930000
C       -0.26290000       0.12110000       2.79730000
N       -0.74770000      -1.30840000       3.06910000
C       -1.56540000      -1.15050000       1.77520000
C        0.39370000      -1.74650000       2.13470000
H       -0.61280000       1.93330000       0.54790000
H       -0.47190000       1.52220000      -1.23280000
H        1.97070000       0.77610000      -0.78540000
H        1.72380000       1.21970000       0.97580000
H        0.67690000       0.36080000       3.30190000
H       -1.02710000       0.87920000       2.98930000
H       -2.42250000      -0.47980000       1.88120000
H       -1.85230000      -2.10190000       1.32030000
H        0.25050000      -2.74160000       1.70610000
H        1.38650000      -1.63860000       2.58010000
