18
Properties=species:S:1:pos:R:3 gdb_97311=T pbc="F F F"
C        0.48230000       1.56210000      -0.61880000
N        0.85440000       0.18490000      -0.87130000
C        0.09280000      -0.71550000      -0.40500000
N        0.36570000      -2.05130000      -0.61090000
C        1.55100000      -2.53360000      -1.29660000
C        1.22700000      -4.03120000      -1.40240000
O        0.22010000      -4.26910000      -0.40350000
C       -0.35250000      -3.08990000      -0.03110000
N       -1.35750000      -2.94520000       0.72180000
H        1.29440000       2.07240000      -0.08750000
H        0.34780000       2.08960000      -1.57070000
H       -0.44090000       1.67300000      -0.02830000
H       -0.81930000      -0.55770000       0.17900000
H        1.66780000      -2.04560000      -2.26630000
H        2.45380000      -2.33250000      -0.70750000
H        0.81680000      -4.29250000      -2.38400000
H        2.08020000      -4.67690000      -1.18830000
H       -1.72920000      -3.85010000       0.99860000
