21
Properties=species:S:1:pos:R:3 gdb_84913=T pbc="F F F"
C        0.75850000       1.47920000      -0.03130000
C       -0.09880000       0.19330000       0.04520000
C       -0.08820000      -0.49360000      -1.29770000
C        0.31250000      -1.70330000      -1.68670000
C        0.88080000      -2.82970000      -0.86540000
C        0.18540000      -3.09230000       0.47540000
C        0.39760000      -2.01400000       1.51540000
O        1.57020000      -1.19420000       1.39420000
C        0.28370000      -0.56600000       1.30070000
H        1.81290000       1.22010000      -0.16160000
H        0.45140000       2.10580000      -0.87380000
H        0.66060000       2.07080000       0.88490000
H       -1.13740000       0.51870000       0.22130000
H       -0.45940000       0.16560000      -2.08280000
H        0.23350000      -1.91310000      -2.75190000
H        0.83580000      -3.74960000      -1.45770000
H        1.94390000      -2.64170000      -0.66960000
H       -0.89240000      -3.23590000       0.32630000
H        0.56880000      -4.03430000       0.88760000
H        0.21460000      -2.35230000       2.53840000
H        0.04610000       0.02050000       2.19360000
