20
Properties=species:S:1:pos:R:3 gdb_36776=T pbc="F F F"
N       -0.08120000      -1.16260000      -0.18810000
C       -0.06900000      -0.01130000      -0.09060000
C       -0.02740000       1.44420000       0.03200000
C        1.40960000       2.00180000       0.00520000
C        1.43740000       3.52770000       0.14280000
C        2.84850000       4.10150000       0.09950000
C        3.56010000       4.15190000      -1.27460000
O        3.67060000       5.58740000      -1.21890000
C        2.98270000       5.64070000       0.04620000
H       -0.61810000       1.87850000      -0.78330000
H       -0.52710000       1.72840000       0.96570000
H        1.98700000       1.54190000       0.81510000
H        1.89110000       1.69800000      -0.93130000
H        0.83870000       3.98180000      -0.65910000
H        0.95740000       3.81830000       1.08750000
H        3.46350000       3.64630000       0.88120000
H        4.54130000       3.66600000      -1.33390000
H        2.94990000       3.82020000      -2.12670000
H        2.03170000       6.18670000      -0.02500000
H        3.59680000       6.10110000       0.82960000
