17
Properties=species:S:1:pos:R:3 gdb_96903=T pbc="F F F"
C       -0.01410000       1.38020000       0.07330000
N       -0.08260000      -0.06030000      -0.08610000
C        0.54630000      -0.59210000      -1.02780000
C        1.41180000      -0.17060000      -2.22100000
C        1.50310000      -1.67340000      -2.52480000
C        1.96880000      -2.41390000      -1.33110000
N        0.54170000      -2.00950000      -1.34820000
C        1.37140000      -2.24960000      -3.81920000
C        1.28810000      -2.70660000      -4.92870000
H        0.61800000       1.89350000      -0.66620000
H       -1.02600000       1.79620000       0.01310000
H        0.36430000       1.61270000       1.07480000
H        0.84200000       0.37940000      -2.97340000
H        2.35320000       0.35090000      -2.02790000
H        2.09640000      -3.48630000      -1.43130000
H        2.64230000      -1.93140000      -0.62600000
H        1.20430000      -3.12000000      -5.90340000
