17
Properties=species:S:1:pos:R:3 gdb_54982=T pbc="F F F"
C        0.16550000      -0.12310000       0.76540000
C       -0.06880000       0.96220000      -0.26180000
O       -0.18680000       2.13270000       0.02050000
C       -0.14050000       0.55320000      -1.71130000
O        0.29740000      -0.77390000      -2.06870000
C       -1.06950000      -0.48320000      -2.19230000
C       -2.21020000      -1.25580000      -1.53210000
O       -2.93660000      -1.25360000      -2.77930000
C       -1.87200000      -0.57920000      -3.48620000
H       -0.63930000      -0.86570000       0.74610000
H        1.08910000      -0.66320000       0.53520000
H        0.22290000       0.32750000       1.75650000
H        0.14480000       1.34520000      -2.40280000
H       -1.93670000      -2.26710000      -1.20530000
H       -2.76020000      -0.74440000      -0.73330000
H       -2.20290000       0.36540000      -3.93270000
H       -1.40820000      -1.21120000      -4.25370000
