17
Properties=species:S:1:pos:R:3 gdb_41130=T pbc="F F F"
C        0.03210000       1.48800000      -0.14280000
O        1.50120000       1.46360000       0.05920000
C        1.34370000       0.22540000       0.80090000
C        1.13930000       0.29770000       2.29790000
C        0.23120000      -0.65510000       2.52270000
C       -0.03290000      -1.24500000       1.14410000
C        1.38370000      -1.31010000       0.37560000
C        0.69240000      -0.94980000      -0.94420000
C        0.01230000      -0.03470000       0.10680000
H       -0.44760000       2.10050000       0.62790000
H       -0.23090000       1.84000000      -1.14370000
H        1.63190000       0.97970000       2.97540000
H       -0.21440000      -0.98510000       3.45040000
H       -0.73070000      -2.07460000       1.02150000
H        2.16850000      -2.05470000       0.55370000
H        1.31220000      -0.44380000      -1.68690000
H        0.06330000      -1.71750000      -1.40130000
