13
Properties=species:S:1:pos:R:3 gdb_129384=T pbc="F F F"
N        0.18480000       0.49710000       1.22650000
C       -0.08830000       0.14210000      -0.07320000
N        0.47450000       0.52410000      -1.15360000
C       -1.23500000      -0.79300000      -0.16800000
N       -1.86180000      -1.34650000       0.83440000
C       -2.80070000      -2.10390000       0.18470000
O       -3.68690000      -2.86190000       0.82590000
N       -2.77230000      -2.03610000      -1.12370000
O       -1.71050000      -1.14730000      -1.35530000
H        1.07940000       0.91460000       1.42330000
H       -0.22440000      -0.06390000       1.95770000
H        1.24860000       1.16300000      -0.96340000
H       -3.52980000      -2.75500000       1.77170000
