21
Properties=species:S:1:pos:R:3 gdb_119834=T pbc="F F F"
C       -0.20120000       1.45430000       0.11360000
C       -0.04890000      -0.05430000       0.09850000
O       -1.35900000      -0.62040000      -0.08430000
C       -1.40860000      -1.95260000      -0.13450000
N       -0.42100000      -2.75760000      -0.03320000
C       -1.00480000      -4.09910000      -0.16610000
C       -2.54930000      -3.91990000      -0.01630000
C       -3.05720000      -4.24130000       1.39090000
N       -2.67180000      -2.49030000      -0.35190000
H        0.77700000       1.92400000       0.25310000
H       -0.62540000       1.81330000      -0.82840000
H       -0.85610000       1.77360000       0.92950000
H        0.59960000      -0.39540000      -0.71470000
H        0.37420000      -0.43550000       1.03380000
H       -0.75210000      -4.51960000      -1.14840000
H       -0.60050000      -4.78000000       0.59110000
H       -3.09430000      -4.52230000      -0.74990000
H       -2.48800000      -3.68430000       2.14290000
H       -4.11750000      -3.98740000       1.50150000
H       -2.94720000      -5.31010000       1.60220000
H       -3.44890000      -1.97600000       0.04100000
