21
Properties=species:S:1:pos:R:3 gdb_81037=T pbc="F F F"
C       -0.10980000       1.51650000      -0.00140000
C        0.02960000      -0.00160000       0.02600000
C        1.19790000      -0.59540000      -0.82010000
C        2.11910000      -0.42990000       0.42450000
C        0.79910000      -0.59370000       1.23270000
O        0.59130000       0.05710000       2.45820000
C        0.47680000      -2.09900000       1.30920000
O        0.97500000      -2.80910000       0.18540000
C        0.94170000      -2.08980000      -1.04380000
H        0.84670000       2.02650000       0.14320000
H       -0.52050000       1.84250000      -0.96330000
H       -0.78480000       1.85560000       0.78950000
H       -0.95120000      -0.45990000      -0.15410000
H        1.46450000      -0.08580000      -1.74910000
H        2.90890000      -1.16900000       0.57760000
H        2.52310000       0.57910000       0.51320000
H        1.15750000      -0.35060000       3.12290000
H        0.96640000      -2.54420000       2.18590000
H       -0.61080000      -2.23310000       1.42530000
H       -0.02480000      -2.23310000      -1.55480000
H        1.72190000      -2.54040000      -1.66710000
