23
Properties=species:S:1:pos:R:3 gdb_89251=T pbc="F F F"
C       -0.40320000       1.53490000      -0.02040000
C        0.02500000       0.07300000       0.00920000
C        1.07370000      -0.47750000      -1.02040000
C        1.84330000      -1.18510000       0.14600000
C        1.97730000      -2.69040000       0.08430000
C        3.05410000      -0.44390000       0.77590000
C        2.91610000       1.04600000       0.73840000
C        2.10760000       0.27820000       1.75130000
C        0.89810000      -0.49160000       1.17370000
H        0.44030000       2.22170000       0.08590000
H       -0.91280000       1.77340000      -0.96100000
H       -1.10230000       1.74940000       0.79610000
H       -0.87780000      -0.54530000      -0.05510000
H        0.65600000      -1.16550000      -1.76090000
H        1.64390000       0.28420000      -1.55860000
H        2.69960000      -2.99190000      -0.68500000
H        2.32560000      -3.09520000       1.04170000
H        1.02010000      -3.16750000      -0.15390000
H        4.00760000      -0.92090000       0.97700000
H        3.75520000       1.58610000       1.16780000
H        2.46620000       1.55800000      -0.10390000
H        2.24530000       0.46630000       2.80990000
H        0.38220000      -1.08870000       1.92910000
