11
Properties=species:S:1:pos:R:3 gdb_14603=T pbc="F F F"
O        0.31520000       0.08250000      -0.16430000
C        0.38560000       1.26440000      -0.27670000
O        0.67590000       2.07380000       0.77420000
C        0.77120000       3.47530000       0.50700000
C        2.13880000       3.88490000       0.21300000
C        3.27040000       4.22510000      -0.03210000
C        4.54950000       4.61430000      -0.31190000
N        5.63530000       4.94860000      -0.55180000
H        0.21520000       1.82460000      -1.21640000
H        0.11060000       3.75960000      -0.32330000
H        0.41010000       3.98350000       1.40590000
