17
Properties=species:S:1:pos:R:3 gdb_126459=T pbc="F F F"
C       -0.06210000       1.53480000       0.10280000
C        0.01480000       0.01090000      -0.02010000
C        0.71830000      -0.45070000      -1.25440000
N        1.21780000       0.34260000      -2.14560000
O        1.78300000      -0.50920000      -3.13130000
C        1.59530000      -1.81410000      -2.78380000
O        1.95730000      -2.77230000      -3.41000000
N        0.90980000      -1.77260000      -1.57530000
C        0.50900000      -2.96230000      -0.85390000
H        0.93680000       1.97630000       0.12590000
H       -0.59520000       1.96920000      -0.74580000
H       -0.58620000       1.80850000       1.02180000
H        0.52810000      -0.41860000       0.85050000
H       -0.99290000      -0.42550000      -0.01390000
H        0.84830000      -3.81480000      -1.44490000
H        0.97410000      -3.00210000       0.13550000
H       -0.57830000      -3.01130000      -0.74230000
