14
Properties=species:S:1:pos:R:3 gdb_129848=T pbc="F F F"
N        0.02630000       1.37220000       0.08560000
C       -0.08360000       0.02680000       0.03180000
C       -1.23030000      -0.71870000       0.02020000
C       -1.11270000      -2.13480000      -0.00390000
O       -2.26490000      -2.84370000      -0.00860000
N        0.00590000      -2.79820000      -0.02100000
N        1.12960000      -2.02180000      -0.01770000
C        1.22590000      -0.66100000       0.00180000
O        2.29480000      -0.05540000      -0.01110000
H        0.96220000       1.73300000      -0.03240000
H       -0.76340000       1.97320000      -0.06630000
H       -2.21750000      -0.27230000       0.03410000
H       -2.01510000      -3.77750000      -0.02490000
H        1.99750000      -2.53750000      -0.04130000
