15
Properties=species:S:1:pos:R:3 gdb_62311=T pbc="F F F"
O       -0.00460000       1.42900000      -0.09320000
C        0.05350000       0.02570000      -0.03260000
C        1.00940000      -0.51680000      -1.00750000
N        1.78960000      -0.93110000      -1.75340000
C        0.04660000      -0.64810000       1.36370000
C       -1.47840000      -0.32230000       1.55380000
N       -1.89540000      -1.72890000       1.85040000
C       -0.79940000      -1.85850000       0.83700000
C       -1.33420000      -0.63510000       0.03040000
H        0.88760000       1.78380000      -0.00970000
H        0.83250000      -0.66020000       2.11980000
H       -1.92900000       0.55410000       2.01480000
H       -1.55980000      -2.01240000       2.77520000
H       -0.44390000      -2.81020000       0.44510000
H       -2.12030000      -0.63340000      -0.72120000
