20
Properties=species:S:1:pos:R:3 gdb_92098=T pbc="F F F"
O       -0.04680000       1.47080000      -0.11350000
C        0.02300000       0.05190000       0.04740000
C       -1.37840000      -0.55390000       0.21400000
C       -1.31000000      -2.01830000       0.58750000
C       -2.26650000      -3.02270000       0.04540000
N       -0.86930000      -3.01560000      -0.38690000
C       -0.59230000      -2.55040000      -1.75100000
C        0.59090000      -1.61150000      -1.83310000
C        0.84380000      -0.54580000      -1.07080000
H       -0.40660000       1.64030000      -0.99150000
H        0.57080000      -0.07750000       0.99170000
H       -1.89960000       0.00700000       0.99700000
H       -1.94900000      -0.40850000      -0.71050000
H       -0.89960000      -2.19530000       1.58210000
H       -2.57850000      -3.87680000       0.64080000
H       -3.01760000      -2.66340000      -0.65790000
H       -0.38640000      -3.43980000      -2.35630000
H       -1.47180000      -2.07220000      -2.21620000
H        1.31110000      -1.84840000      -2.61300000
H        1.75550000       0.01760000      -1.26290000
