18
Properties=species:S:1:pos:R:3 gdb_98095=T pbc="F F F"
C       -0.06790000       1.41170000       0.06830000
N        0.08200000      -0.02010000      -0.07120000
C        0.62460000      -0.60690000      -1.15770000
O        1.05340000      -0.03600000      -2.14760000
C        0.65380000      -2.14850000      -1.02420000
O        0.21620000      -2.67990000      -0.02020000
C        1.23110000      -2.87790000      -2.16690000
C        1.98580000      -4.16870000      -1.85920000
C        0.64220000      -4.24950000      -2.48660000
H        0.48840000       1.78650000       0.93450000
H        0.32710000       1.87520000      -0.83700000
H       -1.12100000       1.69110000       0.18340000
H       -0.22010000      -0.65310000       0.65600000
H        1.57480000      -2.25780000      -2.98250000
H        2.86450000      -4.36910000      -2.46100000
H        2.06590000      -4.42580000      -0.80910000
H       -0.18620000      -4.56130000      -1.86070000
H        0.56210000      -4.50770000      -3.53600000
