16
Properties=species:S:1:pos:R:3 gdb_97760=T pbc="F F F"
O        0.32530000       1.06510000       0.76750000
C       -0.02060000       0.29780000      -0.37570000
C       -1.37620000      -0.25060000      -0.32620000
C       -2.48590000      -0.71450000      -0.24760000
C       -3.83300000      -1.25370000      -0.15820000
C       -4.57330000      -1.54650000      -1.51070000
C       -4.57200000      -3.02800000      -1.06140000
O       -4.95700000      -4.06950000      -1.51480000
N       -3.93890000      -2.69790000       0.11440000
H        0.17470000       0.51480000       1.54320000
H        0.07580000       0.97700000      -1.22990000
H        0.69440000      -0.52350000      -0.54320000
H       -4.43150000      -0.65240000       0.53570000
H       -5.56180000      -1.09540000      -1.60640000
H       -3.97970000      -1.34930000      -2.40330000
H       -3.55450000      -3.26450000       0.85620000
