19
Properties=species:S:1:pos:R:3 gdb_55817=T pbc="F F F"
C       -0.09400000       1.46330000      -0.18980000
C        0.04930000      -0.04170000      -0.05070000
O        1.13090000      -0.58320000      -0.05230000
C       -1.25390000      -0.82310000       0.10310000
C       -1.06140000      -2.31660000      -0.00320000
C       -2.16980000      -3.34610000       0.12660000
C       -3.42700000      -2.85720000      -0.58500000
O       -2.67560000      -2.54720000      -1.79080000
C       -1.49090000      -3.10110000      -1.20490000
H        0.88720000       1.93720000      -0.14530000
H       -0.56740000       1.69910000      -1.15010000
H       -0.74420000       1.86980000       0.59230000
H       -1.68180000      -0.53780000       1.07600000
H       -1.96890000      -0.47440000      -0.65120000
H       -0.11950000      -2.66850000       0.40810000
H       -2.11540000      -4.18870000       0.80260000
H       -4.14950000      -3.65600000      -0.78530000
H       -3.94860000      -1.98220000      -0.17880000
H       -0.85180000      -3.70540000      -1.83810000
