19
Properties=species:S:1:pos:R:3 gdb_40416=T pbc="F F F"
C        0.05760000       1.53940000      -0.14540000
C        1.33650000       0.75220000      -0.04110000
C        0.00550000       0.03940000       0.02790000
C       -0.47950000      -0.56320000       1.29850000
O       -0.35980000      -2.01230000       1.39210000
C       -1.66690000      -1.43330000       1.42600000
C       -2.24530000      -1.26970000       2.82620000
C       -1.26930000      -0.31320000       3.48140000
C       -0.31740000       0.09350000       2.63880000
H       -0.23130000       2.15400000       0.70050000
H       -0.22460000       1.94980000      -1.10840000
H        1.93490000       0.61500000      -0.93460000
H        1.91830000       0.83920000       0.87000000
H       -0.26710000      -0.54290000      -0.84640000
H       -2.31040000      -1.68380000       0.58580000
H       -3.26300000      -0.85980000       2.79300000
H       -2.30380000      -2.22830000       3.35620000
H       -1.33650000      -0.04150000       4.52900000
H        0.49270000       0.77010000       2.88150000
