19
Properties=species:S:1:pos:R:3 gdb_98668=T pbc="F F F"
C        0.15770000       1.45430000       0.15930000
N        0.10510000       0.01150000       0.02450000
C        0.67760000      -0.61070000      -1.06270000
O        1.10860000      -0.01830000      -2.03830000
N        0.72510000      -1.98840000      -0.96410000
C       -0.23230000      -2.89070000      -0.29980000
C        0.10160000      -3.96270000      -1.36250000
O       -1.05490000      -4.48710000      -1.96250000
C        0.88560000      -2.85830000      -2.13580000
H        0.98820000       1.78830000       0.79550000
H        0.30120000       1.87090000      -0.83800000
H       -0.77920000       1.83370000       0.57900000
H       -0.01040000      -0.53110000       0.86490000
H        0.00500000      -3.13650000       0.74110000
H       -1.27620000      -2.56210000      -0.37340000
H        0.75460000      -4.75530000      -0.97710000
H       -0.78900000      -5.12030000      -2.63700000
H        0.34640000      -2.49530000      -3.01780000
H        1.92460000      -3.07180000      -2.40350000
