18
Properties=species:S:1:pos:R:3 gdb_15047=T pbc="F F F"
C        0.12840000       1.49070000      -0.11520000
C       -0.02190000      -0.02980000      -0.05150000
C       -1.49040000      -0.50990000       0.06610000
C       -2.27290000      -0.07410000      -1.09500000
N       -2.87520000       0.24500000      -2.02910000
C       -1.57170000      -2.02630000       0.24890000
C       -2.76630000      -2.81690000      -0.12790000
N       -1.50740000      -2.95090000      -0.88740000
H        1.18370000       1.77050000      -0.17810000
H       -0.38170000       1.90560000      -0.98980000
H       -0.29130000       1.96930000       0.77650000
H        0.42890000      -0.49570000      -0.93450000
H        0.51430000      -0.42490000       0.81860000
H       -1.93610000      -0.03620000       0.95230000
H       -0.98730000      -2.35570000       1.10630000
H       -3.04380000      -3.68730000       0.45930000
H       -3.59600000      -2.29610000      -0.59750000
H       -1.58980000      -2.43720000      -1.76340000
