17
Properties=species:S:1:pos:R:3 gdb_42771=T pbc="F F F"
O        0.02310000       0.02680000       0.03090000
C       -0.02330000       1.21830000      -0.01030000
C       -1.06630000       2.34610000       0.03770000
C       -0.03940000       3.01990000       1.03950000
C        0.99280000       2.38250000       0.04320000
C        2.40810000       2.17150000      -0.52550000
C        1.72670000       2.26230000      -1.95100000
C        0.59750000       3.07750000      -1.24440000
O       -0.84220000       2.93700000      -1.26830000
H       -2.12770000       2.23470000       0.23960000
H       -0.03710000       4.11050000       1.07810000
H       -0.10590000       2.58190000       2.03740000
H        3.08770000       3.00780000      -0.34660000
H        2.89820000       1.23320000      -0.26080000
H        2.27900000       2.76460000      -2.74640000
H        1.39360000       1.27980000      -2.29030000
H        0.84190000       4.14630000      -1.27180000
