16
Properties=species:S:1:pos:R:3 gdb_12746=T pbc="F F F"
C       -0.04130000       1.55310000       0.00310000
C        0.02030000       0.05640000       0.04520000
C       -0.85980000      -0.82910000       0.90660000
C        0.63060000      -0.93850000       1.00380000
O        1.14150000      -1.77350000      -0.04090000
C        0.66220000      -0.82470000      -1.04390000
C       -0.17960000      -1.41080000      -2.07230000
C       -0.88290000      -1.87740000      -2.92840000
H        0.91570000       1.98640000      -0.30910000
H       -0.81090000       1.89790000      -0.69750000
H       -0.28780000       1.96150000       0.98810000
H       -1.34610000      -0.30400000       1.72380000
H       -1.43000000      -1.64630000       0.47420000
H        1.22820000      -0.83080000       1.90150000
H        1.52590000      -0.32300000      -1.49950000
H       -1.50160000      -2.29450000      -3.68430000
