22
Properties=species:S:1:pos:R:3 gdb_60566=T pbc="F F F"
C        0.75130000       1.94230000       0.22120000
C        0.25050000       0.49420000       0.08280000
C        0.83010000      -0.13270000      -1.17210000
C        0.04140000      -0.93510000      -2.11490000
O        0.39380000       0.41660000      -2.41770000
C        0.63970000      -0.31260000       1.31300000
C       -0.17480000      -0.26600000       2.56170000
N       -0.05770000      -1.50390000       1.80090000
C       -1.25020000      -1.99920000       1.13240000
H        1.83820000       1.96940000       0.36070000
H        0.51170000       2.51400000      -0.67910000
H        0.29120000       2.43380000       1.08310000
H       -0.83920000       0.51790000      -0.02390000
H        1.90630000      -0.32030000      -1.13030000
H        0.52890000      -1.69410000      -2.72550000
H       -1.01620000      -1.10750000      -1.92090000
H        1.72150000      -0.39720000       1.43110000
H        0.29420000      -0.25290000       3.54250000
H       -1.12120000       0.27360000       2.50640000
H       -1.93750000      -1.21810000       0.77000000
H       -0.95890000      -2.62490000       0.28300000
H       -1.80570000      -2.62580000       1.83780000
