22
Properties=species:S:1:pos:R:3 gdb_100353=T pbc="F F F"
C       -0.14120000       1.55350000      -0.08080000
C        0.01660000       0.03050000      -0.06900000
C        0.71390000      -0.54940000       1.17630000
C        0.84150000      -2.07390000       1.07890000
C        2.10360000       0.07080000       1.39290000
O        2.86230000      -0.12500000       0.21030000
O        0.03110000      -0.14970000       2.39360000
C       -1.20890000      -0.60420000       2.63920000
N       -1.80970000      -0.24410000       3.69240000
H        0.82860000       2.05360000      -0.15540000
H       -0.73740000       1.86570000      -0.94340000
H       -0.64110000       1.91200000       0.82350000
H       -0.96790000      -0.44370000      -0.16350000
H        0.59600000      -0.28960000      -0.94030000
H        1.59280000      -2.31690000       0.32360000
H        1.16570000      -2.48810000       2.03820000
H       -0.09720000      -2.55490000       0.79060000
H        1.98310000       1.13540000       1.63090000
H        2.56910000      -0.41480000       2.26240000
H        3.74570000       0.22320000       0.35820000
H       -1.60900000      -1.27750000       1.87330000
H       -2.73020000      -0.67780000       3.72570000
