16
Properties=species:S:1:pos:R:3 gdb_128005=T pbc="F F F"
C       -0.02010000       1.44060000      -0.10930000
N        0.03560000      -0.01270000      -0.06680000
C       -1.03310000      -0.65330000       0.16930000
O       -2.23650000      -0.01480000       0.38520000
N       -3.46530000      -0.77380000       0.65620000
N       -3.40800000      -1.99420000       0.68950000
C       -2.22300000      -2.74210000       0.48220000
C       -2.41320000      -4.22130000       0.57460000
C       -1.07360000      -2.09920000       0.23060000
H        0.97810000       1.82750000      -0.32520000
H       -0.71030000       1.80180000      -0.88330000
H       -0.36120000       1.86530000       0.84410000
H       -2.80280000      -4.49730000       1.56040000
H       -3.14770000      -4.56050000      -0.16380000
H       -1.47240000      -4.74830000       0.40580000
H       -0.13810000      -2.61900000       0.06400000
