21
Properties=species:S:1:pos:R:3 gdb_36824=T pbc="F F F"
C       -0.15240000       1.55480000       0.01710000
C       -0.18740000       0.09840000      -0.09450000
C       -0.19340000      -1.10490000      -0.17380000
C       -0.20450000      -2.53560000      -0.28040000
C       -0.04230000      -3.40150000       0.95940000
C       -1.37300000      -3.33880000       0.26990000
C        1.24640000       2.11140000       0.24490000
C        2.14660000       2.39590000      -0.92660000
C        1.55620000       3.53670000      -0.13140000
H       -0.57230000       2.00620000      -0.89260000
H       -0.81100000       1.87210000       0.83760000
H        0.24660000      -2.93030000      -1.18660000
H        0.55150000      -4.30340000       0.86200000
H        0.06590000      -2.88710000       1.90670000
H       -2.16960000      -2.78200000       0.74850000
H       -1.70110000      -4.19730000      -0.30530000
H        1.72930000       1.72960000       1.13960000
H        3.20660000       2.19080000      -0.82740000
H        1.75240000       2.21450000      -1.92140000
H        0.76820000       4.12230000      -0.59460000
H        2.21080000       4.11130000       0.51450000
