16
Properties=species:S:1:pos:R:3 gdb_16399=T pbc="F F F"
N       -0.08880000       1.26670000      -0.25230000
C       -0.04610000       0.03910000       0.04520000
O        1.11550000      -0.60270000       0.36690000
C        1.05840000      -1.98290000       0.77870000
C       -0.33580000      -2.56410000       0.60990000
C       -0.93280000      -2.14230000      -0.75270000
C       -1.26670000      -0.84150000       0.02420000
N       -1.25810000      -1.61270000       1.32770000
H        0.84600000       1.67720000      -0.19180000
H        1.79200000      -2.52710000       0.17370000
H        1.35670000      -2.02800000       1.83150000
H       -0.36470000      -3.60930000       0.92750000
H       -0.28220000      -2.08610000      -1.63070000
H       -1.83710000      -2.70670000      -0.99230000
H       -2.15530000      -0.25700000      -0.20500000
H       -2.16820000      -2.06400000       1.41130000
