17
Properties=species:S:1:pos:R:3 gdb_31687=T pbc="F F F"
C        0.01060000       1.43100000       0.17400000
N       -0.01150000       0.03780000      -0.24090000
C       -1.19160000      -0.68730000      -0.11530000
C       -1.32250000      -2.04830000      -0.01150000
N       -2.68980000      -2.34670000       0.01980000
C       -3.23640000      -3.61490000       0.11910000
O       -4.41840000      -3.84810000       0.15260000
C       -3.41050000      -1.16790000      -0.05590000
C       -2.52640000      -0.13430000      -0.13880000
H        1.02490000       1.81820000       0.05140000
H       -0.64510000       2.02660000      -0.46920000
H       -0.30050000       1.59060000       1.21860000
H        0.80120000      -0.47710000       0.06440000
H       -0.58690000      -2.83440000       0.03370000
H       -2.45240000      -4.39270000       0.16410000
H       -4.48640000      -1.20040000      -0.03930000
H       -2.78620000       0.91000000      -0.21080000
