19
Properties=species:S:1:pos:R:3 gdb_78551=T pbc="F F F"
C       -0.10320000       1.46900000       0.07110000
C        0.09200000      -0.00990000       0.08940000
O       -1.08890000      -0.83510000      -0.06730000
C       -0.60120000      -1.73100000       0.95460000
C       -1.50250000      -2.22750000       2.03250000
C       -0.95890000      -3.17720000       0.96870000
C        0.71450000      -1.01440000       1.06830000
C        1.26870000      -0.82190000      -0.34040000
O        1.18610000      -1.77920000      -1.34410000
H        0.84900000       1.97970000       0.24160000
H       -0.49110000       1.79290000      -0.90140000
H       -0.81230000       1.78340000       0.84340000
H       -1.11060000      -2.29550000       3.04220000
H       -2.54950000      -1.95270000       1.96620000
H       -1.65940000      -3.52220000       0.21540000
H       -0.19710000      -3.89790000       1.24510000
H        1.28510000      -0.86640000       1.97630000
H        2.21690000      -0.29150000      -0.36860000
H        0.24210000      -1.90190000      -1.51380000
