13
Properties=species:S:1:pos:R:3 gdb_131895=T pbc="F F F"
N        0.04250000       1.36170000       0.12400000
C       -0.04940000       0.02440000       0.04630000
C       -1.14630000      -0.82180000       0.02600000
C       -0.63890000      -2.16520000      -0.00950000
C        0.70170000      -2.04750000      -0.01330000
O        1.07510000      -0.70390000       0.02140000
N       -2.48420000      -0.39430000       0.01150000
O       -3.37080000      -1.24440000      -0.02030000
O       -2.69650000       0.83370000       0.02800000
H        0.90960000       1.80580000      -0.12800000
H       -0.83500000       1.84740000      -0.00440000
H       -1.22780000      -3.06620000      -0.03210000
H        1.52260000      -2.74180000      -0.03580000
