23
Properties=species:S:1:pos:R:3 gdb_90434=T pbc="F F F"
C        0.07540000       1.57090000      -0.18210000
C        0.05780000       0.05590000      -0.02110000
C        0.86570000      -0.85850000      -0.98820000
C        1.19750000      -1.80800000       0.20070000
C        2.62260000      -1.67390000       0.76090000
O        3.59910000      -1.45080000      -0.23620000
C        2.16370000      -0.45770000       1.65020000
C        2.88530000       0.86740000       1.43090000
C        0.68240000      -0.69540000       1.18890000
H        1.08700000       1.97180000      -0.27170000
H       -0.47380000       1.86240000      -1.08510000
H       -0.40770000       2.06620000       0.66830000
H       -0.99000000      -0.26980000      -0.05340000
H        0.29880000      -1.30340000      -1.80930000
H        1.75980000      -0.39000000      -1.40500000
H        0.76540000      -2.80800000       0.14960000
H        2.90100000      -2.53820000       1.38000000
H        4.45630000      -1.36760000       0.19270000
H        2.24550000      -0.71870000       2.71090000
H        2.99760000       1.10540000       0.37120000
H        2.36130000       1.69490000       1.91890000
H        3.89420000       0.82300000       1.85960000
H        0.00170000      -0.90920000       2.01560000
