20
Properties=species:S:1:pos:R:3 gdb_89448=T pbc="F F F"
C       -0.75150000       1.24790000      -0.14020000
C        0.07730000      -0.02180000      -0.02610000
C        1.43100000      -0.09910000      -0.80490000
C        2.13490000      -0.63020000       0.47210000
C        2.71520000      -2.02400000       0.44820000
O        3.12730000       0.30080000       0.99220000
C        2.44400000       1.09630000       1.84990000
N        1.21530000       0.88300000       2.08930000
C        0.85110000      -0.30140000       1.29990000
H       -0.16570000       2.12540000       0.14740000
H       -1.10210000       1.38850000      -1.16860000
H       -1.62910000       1.20920000       0.51330000
H       -0.54340000      -0.89220000      -0.26580000
H        1.45550000      -0.76060000      -1.67460000
H        1.81800000       0.87960000      -1.09960000
H        3.57770000      -2.07700000      -0.22420000
H        3.03730000      -2.32750000       1.44880000
H        1.96530000      -2.73880000       0.09500000
H        3.03800000       1.88840000       2.29380000
H        0.42390000      -1.06800000       1.95370000
