21
Properties=species:S:1:pos:R:3 gdb_105058=T pbc="F F F"
C       -0.34490000       1.51650000      -0.11580000
C       -0.38010000       0.00520000      -0.35160000
C        0.71140000      -0.54420000      -1.25870000
C        1.34490000       0.26910000      -2.30590000
O        2.02310000       0.00090000      -1.06880000
C        0.68290000      -2.04810000      -1.42830000
O       -0.50080000      -2.52350000      -2.02180000
C        1.92700000      -2.78820000      -1.80360000
C        1.36170000      -2.91970000      -0.40210000
H        0.65250000       1.83260000       0.20110000
H       -0.61070000       2.07560000      -1.01810000
H       -1.05820000       1.79720000       0.66420000
H       -0.29430000      -0.51600000       0.61160000
H       -1.34900000      -0.28610000      -0.77540000
H        1.76240000      -0.22800000      -3.17940000
H        1.05420000       1.30640000      -2.45290000
H       -1.17360000      -2.58840000      -1.33600000
H        1.79650000      -3.62710000      -2.47680000
H        2.84070000      -2.21870000      -1.92070000
H        1.89990000      -2.43490000       0.40500000
H        0.87270000      -3.85210000      -0.14160000
