17
Properties=species:S:1:pos:R:3 gdb_48535=T pbc="F F F"
O       -0.18380000       0.03250000      -0.05560000
C       -0.01540000       1.22620000       0.04300000
C        1.27650000       1.89840000      -0.04780000
C        1.84950000       3.01220000       0.84320000
C        3.13140000       2.20280000       1.02140000
C        2.70920000       1.31160000      -0.21480000
C        3.25390000       1.99210000      -1.45150000
C        2.60810000       3.14730000      -1.63910000
C        1.52370000       3.28960000      -0.62130000
H       -0.86980000       1.91960000       0.22950000
H        1.33070000       3.56020000       1.62120000
H        4.09080000       2.72500000       0.95370000
H        3.08430000       1.62730000       1.94850000
H        2.84790000       0.23720000      -0.12380000
H        4.12830000       1.64770000      -1.98940000
H        2.83340000       3.90960000      -2.37370000
H        0.67260000       3.94070000      -0.78910000
