17
Properties=species:S:1:pos:R:3 gdb_97082=T pbc="F F F"
C        0.47300000       1.14400000       0.25380000
N       -0.01030000      -0.16480000      -0.14600000
C        0.37510000      -0.66700000      -1.23200000
N       -0.07280000      -1.88430000      -1.74910000
C        0.87830000      -2.36160000      -2.75040000
C        1.40230000      -0.99050000      -3.24630000
O        1.27500000      -0.12760000      -2.11810000
C        1.92760000      -3.23130000      -2.21200000
C        2.77220000      -3.95540000      -1.75720000
H        1.15220000       1.61440000      -0.46700000
H       -0.37980000       1.81480000       0.41330000
H        0.99370000       1.06290000       1.21560000
H       -0.40110000      -2.53750000      -1.05310000
H        0.35590000      -2.88280000      -3.55960000
H        2.44730000      -1.01820000      -3.55630000
H        0.77790000      -0.61910000      -4.06680000
H        3.52080000      -4.59200000      -1.35360000
