19
Properties=species:S:1:pos:R:3 gdb_41956=T pbc="F F F"
C        0.02070000       1.39880000      -0.15220000
O        1.31580000       1.94950000      -0.01860000
C        2.05470000       1.47750000       1.10970000
C        1.44060000       1.88400000       2.45620000
O        0.16250000       1.30720000       2.68320000
C        0.08840000      -0.09370000       2.45990000
C        0.68750000      -0.52190000       1.11350000
C        2.14170000      -0.04920000       1.03100000
O       -0.02230000      -0.00750000      -0.01490000
H       -0.66750000       1.87070000       0.55910000
H       -0.29270000       1.61120000      -1.17810000
H        3.03930000       1.94820000       1.02340000
H        2.14500000       1.60440000       3.25960000
H        1.28900000       2.96620000       2.49540000
H        0.60590000      -0.64660000       3.26380000
H       -0.97510000      -0.34500000       2.50170000
H        0.60610000      -1.61040000       1.03010000
H        2.58940000      -0.35720000       0.08300000
H        2.73880000      -0.45600000       1.85420000
