16
Properties=species:S:1:pos:R:3 gdb_133561=T pbc="F F F"
F       -0.21060000       0.07400000      -0.15630000
C       -0.11230000       1.40110000       0.00210000
F        1.19320000       1.72400000      -0.08490000
F       -0.71960000       1.97830000      -1.05320000
C       -0.69880000       1.87060000       1.28910000
C       -1.26420000       1.09340000       2.20990000
C       -1.71040000       1.88690000       3.41200000
C       -1.59690000       3.35860000       2.93100000
C       -0.65430000       3.32560000       1.69910000
H       -1.36490000       0.01780000       2.13250000
H       -2.72310000       1.62590000       3.73800000
H       -1.05150000       1.67840000       4.26670000
H       -2.58390000       3.71510000       2.62190000
H       -1.24020000       4.03200000       3.71330000
H        0.37330000       3.61700000       1.95260000
H       -0.97940000       3.99730000       0.89830000
