17
Properties=species:S:1:pos:R:3 gdb_79544=T pbc="F F F"
C       -0.05700000       1.53650000      -0.01560000
C        0.09650000       0.03180000       0.05660000
C        1.37340000      -0.73040000      -0.20210000
C        2.58480000      -0.02900000       0.37220000
N        3.19700000      -0.75540000       1.47560000
C        1.94770000      -0.03490000       1.75270000
C        1.95350000       0.97830000       2.76600000
N        1.91400000       1.79680000       3.58230000
C        0.72040000      -0.73420000       1.19890000
H        0.80400000       2.06640000       0.39650000
H       -0.18360000       1.85660000      -1.05520000
H       -0.94140000       1.85800000       0.54360000
H       -0.76740000      -0.50050000      -0.34150000
H        1.42280000      -1.55550000      -0.90340000
H        3.16330000       0.76720000      -0.08020000
H        3.03170000      -1.75880000       1.41890000
H        0.21140000      -1.55070000       1.69810000
