21
Properties=species:S:1:pos:R:3 gdb_62930=T pbc="F F F"
C       -0.09670000       1.50550000      -0.02470000
C        0.00430000      -0.01610000      -0.00960000
O       -1.27790000      -0.58590000      -0.20720000
C        1.19420000      -0.59960000      -0.84400000
C        2.07460000      -0.42760000       0.42640000
C        0.74740000      -0.61090000       1.21750000
C        0.45100000      -2.11530000       1.29870000
O        0.97640000      -2.81280000       0.17320000
C        0.95080000      -2.09920000      -1.05740000
H        0.86240000       1.99200000       0.16710000
H       -0.44860000       1.85510000      -1.00450000
H       -0.81210000       1.84120000       0.73290000
H       -1.70650000      -0.12670000      -0.93690000
H        1.47510000      -0.10010000      -1.77630000
H        2.84880000      -1.17850000       0.59140000
H        2.50160000       0.57080000       0.52390000
H        0.61230000      -0.12430000       2.18770000
H        0.94740000      -2.55140000       2.17300000
H       -0.63000000      -2.27990000       1.39470000
H       -0.00610000      -2.24960000      -1.57750000
H        1.74890000      -2.53490000      -1.66890000
