18
Properties=species:S:1:pos:R:3 gdb_7423=T pbc="F F F"
C       -0.09620000       1.54350000      -0.07190000
C       -0.01880000       0.00350000       0.03920000
C        0.72920000      -0.43890000       1.29900000
C       -1.42990000      -0.55330000       0.01820000
O       -2.02940000      -0.89150000       1.01820000
C       -2.13250000      -0.67950000      -1.33460000
N       -3.44960000      -1.00820000      -1.19750000
N       -1.45490000      -0.46190000      -2.40020000
H        0.91450000       1.96240000      -0.07770000
H       -0.59750000       1.84670000      -0.99370000
H       -0.63460000       1.96990000       0.78130000
H        0.48390000      -0.36100000      -0.86100000
H        0.20890000      -0.10310000       2.20020000
H        0.81160000      -1.52850000       1.35310000
H        1.73960000      -0.01940000       1.30440000
H       -3.73320000      -1.30740000      -0.27610000
H       -3.96760000      -1.34820000      -1.98950000
H       -2.02300000      -0.58800000      -3.24120000
