21
Properties=species:S:1:pos:R:3 gdb_60636=T pbc="F F F"
C       -0.05470000       1.42290000       0.06910000
C        0.05430000      -0.08310000       0.07960000
O        0.19610000      -0.71340000       1.10760000
C       -0.01980000      -0.84670000      -1.24740000
O        0.19950000      -2.21270000      -1.01100000
C       -1.36340000      -0.65160000      -1.96330000
C       -1.65880000       0.64970000      -2.76580000
C       -2.31140000      -0.22690000      -3.86840000
C       -1.56910000      -1.45520000      -3.27770000
H        0.58400000       1.85830000      -0.70510000
H       -1.08390000       1.71710000      -0.16350000
H        0.21600000       1.81790000       1.04910000
H        0.77680000      -0.44850000      -1.90180000
H        0.27930000      -2.29040000      -0.04550000
H       -2.17650000      -0.86920000      -1.26110000
H       -2.27600000       1.41840000      -2.29420000
H       -0.73460000       1.11830000      -3.12170000
H       -3.39440000      -0.30200000      -3.73600000
H       -2.10800000       0.03820000      -4.90830000
H       -0.61460000      -1.63630000      -3.78120000
H       -2.10710000      -2.40170000      -3.20770000
