18
Properties=species:S:1:pos:R:3 gdb_47434=T pbc="F F F"
O       -0.13160000       0.02350000       0.45700000
C       -0.07790000       1.17620000       0.12430000
C       -1.23640000       2.10520000      -0.22930000
C       -0.60290000       3.48720000      -0.08250000
O        0.79960000       3.31740000      -0.36200000
C        1.20970000       2.00080000      -0.02490000
C        2.07460000       1.94690000       1.22910000
C        3.18650000       2.90710000       1.40300000
N        1.97440000       3.00320000       2.24310000
H       -1.52560000       1.90430000      -1.26790000
H       -2.10310000       1.92390000       0.40800000
H       -0.98330000       4.23020000      -0.78630000
H       -0.74580000       3.87290000       0.93700000
H        1.78100000       1.58660000      -0.86820000
H        2.16660000       0.93940000       1.62830000
H        4.08950000       2.60760000       1.92690000
H        3.32640000       3.65640000       0.62860000
H        1.40350000       3.75690000       1.86500000
