19
Properties=species:S:1:pos:R:3 gdb_80656=T pbc="F F F"
C       -0.39590000       1.42800000       0.01220000
C        0.06630000      -0.03440000      -0.02890000
C        0.89590000      -0.39520000      -1.26860000
C        1.41680000      -1.85190000      -1.10190000
C        2.51750000      -1.22240000      -0.22060000
C        2.36680000       0.07120000      -1.05070000
O        2.02810000      -1.01110000       1.11850000
C        0.82860000      -0.38700000       1.26120000
O        0.41150000      -0.14660000       2.36080000
H        0.45160000       2.11790000      -0.05520000
H       -1.06910000       1.63710000      -0.82460000
H       -0.92170000       1.62800000       0.94770000
H       -0.82960000      -0.67000000      -0.00760000
H        0.38560000      -0.11830000      -2.19370000
H        0.76270000      -2.59210000      -0.63340000
H        1.83080000      -2.25460000      -2.02930000
H        3.48680000      -1.70560000      -0.10310000
H        2.95340000       0.02590000      -1.97090000
H        2.55450000       1.01810000      -0.53850000
