18
Properties=species:S:1:pos:R:3 gdb_62395=T pbc="F F F"
N        0.00890000       1.52970000      -0.05410000
C       -0.00900000       0.07810000      -0.00430000
C        0.90330000      -0.53680000      -0.98220000
N        1.63980000      -0.95140000      -1.77330000
C        0.07760000      -0.64180000       1.38940000
C       -0.99200000       0.08810000       2.21640000
C       -2.14130000       0.06600000       1.15800000
C       -1.38980000      -0.67000000       0.03810000
N       -0.73780000      -1.77850000       0.82590000
H        0.94900000       1.87610000       0.11950000
H       -0.24870000       1.85300000      -0.98300000
H        1.03720000      -0.87630000       1.84920000
H       -1.23160000      -0.48160000       3.11560000
H       -0.69170000       1.09930000       2.49200000
H       -3.00570000      -0.51570000       1.48190000
H       -2.46160000       1.06530000       0.86220000
H       -1.92190000      -0.93320000      -0.87570000
H       -0.14530000      -2.31800000       0.19370000
