17
Properties=species:S:1:pos:R:3 gdb_2394=T pbc="F F F"
C       -0.02700000       1.53320000      -0.07260000
C        0.02950000       0.02310000      -0.00930000
C        1.34680000      -0.70590000      -0.17520000
C        0.66140000      -0.67550000       1.15720000
C        1.15220000      -0.09370000       2.48010000
O        0.59890000      -1.21640000       3.20190000
C        0.12420000      -1.83720000       1.98670000
H        0.87100000       1.98150000       0.36610000
H       -0.09690000       1.88260000      -1.10830000
H       -0.89290000       1.92620000       0.47180000
H       -0.83810000      -0.47980000      -0.43240000
H        1.36060000      -1.64210000      -0.72510000
H        2.24470000      -0.10570000      -0.29570000
H        2.24180000      -0.02590000       2.60070000
H        0.69870000       0.85700000       2.79170000
H       -0.96680000      -1.96550000       1.98970000
H        0.59920000      -2.81240000       1.81200000
