19
Properties=species:S:1:pos:R:3 gdb_89429=T pbc="F F F"
C        0.03270000       1.47570000       0.09320000
C       -0.03270000      -0.01430000      -0.11210000
C        0.72100000      -0.63460000      -1.28420000
C        0.38620000      -2.14960000      -1.16050000
O        1.42520000      -2.89860000      -0.55470000
C       -0.91140000      -2.16060000      -0.33820000
C       -0.78710000      -1.53610000       1.03640000
O        0.40660000      -0.74920000       1.10970000
C       -1.39930000      -0.74860000      -0.07040000
H        1.06710000       1.79200000       0.25960000
H       -0.34840000       1.99960000      -0.78990000
H       -0.56200000       1.77370000       0.96080000
H        0.34620000      -0.21730000      -2.22620000
H        1.80130000      -0.47120000      -1.23630000
H        0.23320000      -2.60540000      -2.14220000
H        1.58400000      -2.47210000       0.29760000
H       -1.62980000      -2.96420000      -0.45210000
H       -1.17980000      -1.95070000       1.95710000
H       -2.38810000      -0.34130000      -0.23030000
