19
Properties=species:S:1:pos:R:3 gdb_90200=T pbc="F F F"
C       -0.42930000       1.41310000       0.00610000
C        0.02940000      -0.04050000      -0.01090000
C        1.32010000      -0.34680000      -0.88660000
C        2.15480000      -0.43930000       0.42120000
N        2.56950000       0.80130000       1.16720000
C        1.92790000      -0.04980000       2.21550000
C        2.38660000      -1.44350000       1.60670000
N        0.99000000      -1.98380000       1.61700000
C        0.83560000      -0.53770000       1.22670000
H        0.40270000       2.07770000       0.24870000
H       -0.83090000       1.69810000      -0.97270000
H       -1.21790000       1.56140000       0.75100000
H       -0.81680000      -0.69960000      -0.23110000
H        1.25920000      -1.28450000      -1.44420000
H        1.63920000       0.44640000      -1.56630000
H        3.58470000       0.82840000       1.28980000
H        1.87090000       0.23520000       3.27110000
H        3.25790000      -2.05200000       1.87810000
H        0.85610000      -2.58290000       0.79630000
