16
Properties=species:S:1:pos:R:3 gdb_26302=T pbc="F F F"
C        0.09900000       1.56910000      -0.02730000
C       -0.00880000       0.03950000      -0.00170000
O        0.54580000      -0.53940000      -1.18050000
C        0.60410000      -0.55040000       1.22430000
C        0.14490000      -1.30330000       2.23150000
N        1.23040000      -1.55310000       3.07260000
C        2.36780000      -0.95990000       2.57450000
O        3.48890000      -0.95080000       3.00010000
O        1.96070000      -0.32560000       1.41030000
H        1.14670000       1.88080000       0.02940000
H       -0.33060000       1.94900000      -0.95740000
H       -0.43250000       2.01440000       0.81940000
H       -1.06440000      -0.25290000      -0.00890000
H        1.49470000      -0.36850000      -1.16570000
H       -0.84300000      -1.68300000       2.42650000
H        1.23440000      -2.08890000       3.92210000
