15
Properties=species:S:1:pos:R:3 gdb_66954=T pbc="F F F"
O        0.04790000       1.36760000      -0.12330000
C        0.07030000       0.00530000      -0.01800000
C       -0.23120000      -0.91790000      -1.19480000
O        0.47510000      -2.14770000      -0.99080000
C        0.06060000      -2.04350000       0.40510000
C       -1.08520000      -1.03290000       0.02660000
C        0.89050000      -0.85360000       0.91360000
C        2.19630000      -0.72300000       1.54060000
O        0.96840000      -0.52020000       2.28790000
H       -0.12810000       1.72610000       0.75600000
H       -0.43610000      -0.57300000      -2.20000000
H       -0.01240000      -2.98790000       0.93850000
H       -2.14590000      -0.97180000       0.22020000
H        2.76160000      -1.61130000       1.81670000
H        2.78770000       0.17630000       1.37830000
