16
Properties=species:S:1:pos:R:3 gdb_102950=T pbc="F F F"
C        0.34500000       0.84530000       0.29870000
O       -0.06000000      -0.42430000      -0.19570000
C       -1.43180000      -0.69550000      -0.07730000
C       -1.68330000      -2.04720000      -0.75610000
O       -1.02240000      -3.09890000      -0.07280000
C        0.24230000      -3.40250000      -0.46410000
O        0.90230000      -4.21460000       0.10330000
C       -1.88360000      -0.70550000       1.33290000
N       -2.23940000      -0.67350000       2.43120000
H        1.41710000       0.92090000       0.11270000
H       -0.17390000       1.65870000      -0.22790000
H        0.15500000       0.93590000       1.37510000
H       -2.03220000       0.06580000      -0.60470000
H       -2.75010000      -2.28000000      -0.74660000
H       -1.33990000      -1.97100000      -1.79450000
H        0.56080000      -2.83460000      -1.35630000
