23
Properties=species:S:1:pos:R:3 gdb_101003=T pbc="F F F"
C       -0.19450000       1.58460000       0.22720000
C       -0.05800000       0.06090000       0.16920000
C       -1.41260000      -0.64060000      -0.02710000
O       -2.03420000      -0.21460000      -1.23330000
C       -1.31760000      -2.17620000      -0.03480000
O       -0.57580000      -2.59410000      -1.17850000
C       -0.96020000      -2.83240000       1.33100000
C       -2.46940000      -3.13870000       1.53760000
C       -2.70260000      -2.86410000       0.02670000
H        0.78320000       2.06990000       0.30250000
H       -0.69840000       1.95280000      -0.66980000
H       -0.78850000       1.89240000       1.09500000
H        0.60440000      -0.20890000      -0.66540000
H        0.41970000      -0.30830000       1.08520000
H       -2.08580000      -0.33490000       0.78490000
H       -1.63070000      -0.75100000      -1.92910000
H        0.34720000      -2.35070000      -1.04500000
H       -0.37680000      -3.74290000       1.16930000
H       -0.45730000      -2.21590000       2.08040000
H       -2.72340000      -4.13470000       1.90430000
H       -2.95980000      -2.40160000       2.17840000
H       -3.55870000      -2.25450000      -0.26640000
H       -2.69150000      -3.78180000      -0.56570000
