19
Properties=species:S:1:pos:R:3 gdb_109179=T pbc="F F F"
C        0.05300000       1.35250000       0.02570000
O       -0.04390000      -0.07000000       0.03930000
C       -1.29730000      -0.57510000       0.05170000
N       -2.32930000       0.17130000       0.04030000
C       -3.62910000      -0.48700000       0.02290000
C       -3.62210000      -1.93960000       0.52490000
O       -4.81430000      -2.63260000       0.19220000
C       -2.47050000      -2.69570000      -0.13490000
N       -1.25080000      -1.94840000       0.11340000
H        1.12180000       1.57270000       0.01840000
H       -0.43060000       1.76900000      -0.86200000
H       -0.42130000       1.78430000       0.91100000
H       -4.32710000       0.10530000       0.63060000
H       -4.03770000      -0.48690000      -0.99870000
H       -3.45390000      -1.94540000       1.61320000
H       -5.55410000      -2.15410000       0.57920000
H       -2.37960000      -3.69690000       0.29580000
H       -2.69190000      -2.80910000      -1.20690000
H       -0.36670000      -2.36670000      -0.12710000
