17
Properties=species:S:1:pos:R:3 gdb_85458=T pbc="F F F"
O       -0.13760000       1.51600000       0.06040000
C       -0.01410000       0.09870000       0.01240000
C        0.60020000      -0.46070000       1.30160000
C       -0.56510000      -0.48410000       2.30270000
O       -0.46690000      -0.53340000       3.49880000
C       -1.87920000      -0.43230000       1.50640000
C       -1.43800000      -0.45260000       0.05590000
C       -2.31790000      -0.46050000      -1.10860000
O       -1.65180000      -1.65860000      -0.68410000
H        0.73580000       1.88970000       0.21650000
H        0.50250000      -0.23420000      -0.89620000
H        0.92540000      -1.49790000       1.14580000
H        1.45490000       0.10150000       1.68640000
H       -2.53140000      -1.27070000       1.76200000
H       -2.40000000       0.49650000       1.76170000
H       -3.39740000      -0.45350000      -0.96600000
H       -1.96990000      -0.03950000      -2.05050000
