19
Properties=species:S:1:pos:R:3 gdb_84382=T pbc="F F F"
O        0.39010000       1.07780000      -0.64530000
C        0.12430000      -0.18400000      -0.04150000
C        0.60940000      -0.27860000       1.38470000
C       -0.32450000      -0.73390000       2.21780000
C       -1.62920000      -1.03890000       1.52270000
O       -2.75970000      -0.45780000       2.16430000
C       -1.36600000      -0.56870000       0.07610000
C       -2.41310000       0.23720000      -0.65730000
C       -2.10770000      -1.17230000      -1.08530000
H       -0.01240000       1.75180000      -0.08580000
H        0.65830000      -0.89430000      -0.68490000
H        1.62400000      -0.00130000       1.64970000
H       -0.20830000      -0.89470000       3.28420000
H       -1.84420000      -2.11440000       1.54750000
H       -2.59860000       0.49090000       2.22110000
H       -3.34870000       0.41650000      -0.13990000
H       -2.06050000       1.04460000      -1.28900000
H       -1.56300000      -1.31650000      -2.01340000
H       -2.84390000      -1.94090000      -0.87080000
