16
Properties=species:S:1:pos:R:3 gdb_31110=T pbc="F F F"
N        0.67460000       1.47760000       0.60210000
C        0.13060000       0.26820000       0.34600000
N       -0.82460000      -0.31340000       0.98220000
C       -1.04750000      -1.50800000       0.28070000
C       -1.94690000      -2.46040000       0.54990000
N       -1.66630000      -4.97360000      -1.77650000
H       -1.15420000      -5.84530000      -1.67280000
H       -2.23680000      -5.08120000      -2.61070000
H       -0.97480000      -4.25710000      -1.99120000
C       -0.08480000      -1.56270000      -0.85830000
O        0.13710000      -2.34850000      -1.73040000
O        0.65050000      -0.36980000      -0.75170000
H        1.57740000       1.67990000       0.20620000
H        0.45710000       1.88270000       1.49790000
H       -2.02310000      -3.35020000      -0.06910000
H       -2.61330000      -2.34830000       1.39720000
