15
Properties=species:S:1:pos:R:3 gdb_4966=T pbc="F F F"
C        0.02900000       1.51480000       0.04910000
C        0.02460000       0.00860000       0.01250000
C       -0.04570000      -0.71130000      -1.17960000
C       -0.04630000      -2.10120000      -1.15570000
N        0.01830000      -2.81170000      -0.02580000
C        0.08580000      -2.13640000       1.11870000
C        0.09210000      -0.74160000       1.19290000
O        0.16490000      -0.17950000       2.43190000
H        0.94280000       1.90950000       0.51270000
H       -0.02900000       1.93030000      -0.95920000
H       -0.82380000       1.91210000       0.61530000
H       -0.09990000      -0.18300000      -2.12660000
H       -0.10100000      -2.66760000      -2.08140000
H        0.13860000      -2.70870000       2.04160000
H        0.16180000       0.77950000       2.35320000
