20
Properties=species:S:1:pos:R:3 gdb_117413=T pbc="F F F"
C       -0.49250000       1.25070000      -0.30410000
C        0.50020000       0.19230000       0.18060000
N        1.17160000      -0.49480000      -0.91200000
C        0.96620000      -1.81130000      -1.20390000
O        0.20410000      -2.52400000      -0.57240000
C        1.79530000      -2.34040000      -2.37420000
C        1.15640000      -3.59740000      -2.98970000
C        1.98650000      -4.19290000      -4.02850000
C        2.68890000      -4.66430000      -4.88260000
H        0.00470000       2.01990000      -0.90560000
H       -1.27670000       0.79490000      -0.91530000
H       -0.96520000       1.74870000       0.54830000
H        1.25120000       0.65010000       0.83670000
H       -0.01210000      -0.58420000       0.75210000
H        1.79250000       0.03600000      -1.50140000
H        1.93260000      -1.56640000      -3.13720000
H        2.79570000      -2.58770000      -1.99880000
H        0.96540000      -4.31530000      -2.18600000
H        0.17180000      -3.34310000      -3.39980000
H        3.29770000      -5.09670000      -5.63710000
