23
Properties=species:S:1:pos:R:3 gdb_37440=T pbc="F F F"
C       -0.01900000       1.52690000      -0.13880000
C        1.30140000       0.81290000       0.02180000
C        0.00690000       0.02680000       0.03010000
C       -0.20360000      -0.65970000       1.37990000
C        0.99290000      -1.62330000       1.57960000
C        2.32640000      -0.81260000       1.57220000
C        2.01930000       0.69190000       1.36620000
C        1.12880000       1.16410000       2.53120000
C       -0.20270000       0.35470000       2.53940000
H       -0.39800000       2.16050000       0.65380000
H       -0.25020000       1.89690000      -1.13230000
H        1.94240000       0.75540000      -0.85350000
H       -0.24610000      -0.57270000      -0.84000000
H       -1.14230000      -1.22380000       1.38560000
H        0.87480000      -2.16890000       2.52250000
H        0.99430000      -2.37500000       0.78330000
H        2.87230000      -0.95330000       2.51170000
H        2.98700000      -1.16440000       0.77280000
H        2.95190000       1.26600000       1.36050000
H        1.67300000       1.02130000       3.47090000
H        0.93610000       2.23810000       2.44840000
H       -1.06790000       1.01990000       2.45940000
H       -0.31900000      -0.18820000       3.48350000
