21
Properties=species:S:1:pos:R:3 gdb_115447=T pbc="F F F"
C       -0.03100000       1.55750000       0.13050000
C       -0.09260000       0.04950000      -0.12710000
C       -1.47360000      -0.54270000       0.11050000
C       -1.60040000      -2.05510000      -0.12300000
C       -2.78140000      -2.46070000       0.78330000
C       -2.87060000      -1.26600000       1.79210000
O       -1.81570000      -0.38560000       1.49300000
C       -4.23620000      -0.60120000       1.68240000
O       -4.44130000       0.48100000       1.20150000
H        0.97940000       1.94380000      -0.03410000
H       -0.71050000       2.09950000      -0.53610000
H       -0.32330000       1.78400000       1.15890000
H        0.19810000      -0.16940000      -1.16240000
H        0.62100000      -0.47430000       0.52120000
H       -2.21600000      -0.00720000      -0.50240000
H       -1.76880000      -2.30660000      -1.17290000
H       -0.68030000      -2.55170000       0.20170000
H       -3.70840000      -2.56320000       0.21030000
H       -2.61080000      -3.40930000       1.29500000
H       -2.75170000      -1.60570000       2.82970000
H       -5.06920000      -1.23400000       2.07550000
