21
Properties=species:S:1:pos:R:3 gdb_90086=T pbc="F F F"
C       -0.10370000       1.53320000       0.08950000
C        0.08380000       0.02450000       0.01190000
C        1.29020000      -0.62520000      -0.70640000
C        2.20490000      -0.17720000       0.52540000
C        0.88400000      -0.76070000       1.11950000
C        0.08520000      -1.62780000       2.11550000
C       -0.20750000      -2.59760000       0.87330000
O       -1.47510000      -2.50180000       0.26620000
C        1.01570000      -1.92360000       0.13070000
H        0.80520000       2.08430000       0.34320000
H       -0.46410000       1.91870000      -0.87130000
H       -0.86140000       1.78420000       0.84070000
H       -0.86480000      -0.44530000      -0.24470000
H        1.56310000      -0.53680000      -1.76330000
H        3.10470000      -0.77530000       0.69240000
H        2.42610000       0.88770000       0.62150000
H        0.69540000      -2.13450000       2.86910000
H       -0.78280000      -1.16790000       2.59950000
H        0.02370000      -3.64730000       1.10110000
H       -2.12540000      -2.86040000       0.87930000
H        1.89620000      -2.55930000       0.26250000
