20
Properties=species:S:1:pos:R:3 gdb_121480=T pbc="F F F"
C       -0.12290000       1.49270000      -0.07750000
C       -0.11450000       0.00160000       0.19970000
O       -1.37880000      -0.52940000      -0.21580000
C       -1.55430000      -1.84780000      -0.02790000
N       -2.63070000      -2.40720000      -0.37220000
C       -2.77570000      -3.80770000      -0.18410000
C       -4.13510000      -4.29500000       0.31060000
C       -3.76070000      -4.45180000      -1.13850000
O       -4.35420000      -3.65700000      -2.11200000
H        0.82970000       1.93530000       0.22740000
H       -0.27140000       1.68480000      -1.14340000
H       -0.92840000       1.98220000       0.47630000
H        0.69350000      -0.49550000      -0.35380000
H        0.03510000      -0.19750000       1.26950000
H       -0.70540000      -2.36860000       0.43810000
H       -1.89300000      -4.37110000       0.12260000
H       -4.15320000      -5.16960000       0.95230000
H       -4.86220000      -3.52680000       0.54800000
H       -3.53640000      -5.44820000      -1.50770000
H       -4.05140000      -2.75380000      -1.93420000
