20
Properties=species:S:1:pos:R:3 gdb_60800=T pbc="F F F"
C        0.85780000       1.15630000       0.20110000
N       -0.00050000      -0.01770000       0.04360000
C       -0.76930000      -0.37320000       1.11930000
O       -0.78120000       0.21690000       2.18100000
C        0.04900000      -0.73420000      -1.24190000
C        1.47890000      -1.17600000      -1.58290000
C       -0.89560000      -1.95110000      -1.29480000
C       -0.49040000       0.24170000      -2.30530000
O        0.02100000       0.45810000      -3.37010000
H        1.88210000       0.87870000       0.47280000
H        0.88900000       1.73350000      -0.72740000
H        0.44410000       1.76830000       1.00180000
H       -1.39540000      -1.25800000       0.93710000
H        1.83640000      -1.89560000      -0.84110000
H        1.49780000      -1.64140000      -2.57030000
H        2.16750000      -0.32960000      -1.61090000
H       -1.94400000      -1.67730000      -1.14610000
H       -0.80400000      -2.41150000      -2.28200000
H       -0.62060000      -2.70030000      -0.54760000
H       -1.43830000       0.73840000      -1.99240000
