17
Properties=species:S:1:pos:R:3 gdb_51580=T pbc="F F F"
O       -0.05880000       0.08820000      -0.03890000
C        0.08520000       1.25320000       0.17220000
O        0.95300000       2.01480000      -0.53350000
C        1.00050000       3.38820000      -0.19430000
C        1.78870000       3.81470000       1.01220000
C        2.32200000       4.07290000      -0.38520000
C        3.50590000       3.30980000      -0.88100000
C        4.20590000       3.68850000      -2.11420000
O        4.75730000       4.00140000      -0.83300000
H       -0.45780000       1.82890000       0.94510000
H        0.09580000       3.92710000      -0.46080000
H        1.42780000       4.64900000       1.60240000
H        2.27560000       3.02920000       1.58060000
H        2.27680000       5.09640000      -0.74410000
H        3.55500000       2.26830000      -0.56750000
H        4.74150000       2.93230000      -2.68590000
H        3.85300000       4.54230000      -2.69170000
