23
Properties=species:S:1:pos:R:3 gdb_63979=T pbc="F F F"
C        0.20350000       1.51360000       0.04060000
C        0.05030000      -0.00190000       0.00110000
C       -1.41400000      -0.40470000      -0.18900000
C        0.99740000      -0.77930000      -0.97320000
C        1.43900000      -1.71590000       0.18950000
C        2.90160000      -1.64570000       0.63110000
C        2.96030000      -0.29220000       1.35520000
O        1.67910000      -0.11010000       1.95340000
C        0.69130000      -0.79320000       1.19670000
H        1.23650000       1.81190000       0.23580000
H       -0.10510000       1.95700000      -0.91360000
H       -0.41720000       1.95170000       0.83000000
H       -1.80530000      -0.02220000      -1.13860000
H       -1.53530000      -1.49400000      -0.19650000
H       -2.03860000      -0.00610000       0.61870000
H        0.50290000      -1.27060000      -1.81540000
H        1.81550000      -0.16920000      -1.36940000
H        1.06460000      -2.73690000       0.10790000
H        3.12560000      -2.45860000       1.32970000
H        3.60960000      -1.70580000      -0.20070000
H        3.70970000      -0.25160000       2.15120000
H        3.17780000       0.52180000       0.64630000
H       -0.02190000      -1.22870000       1.90360000
