25
Properties=species:S:1:pos:R:3 gdb_59357=T pbc="F F F"
C       -0.31490000       1.37530000      -1.03770000
C       -0.05730000       0.02510000      -0.35320000
C        0.72930000       0.20260000       0.95290000
C       -1.38160000      -0.68250000      -0.09170000
O       -2.20090000      -0.81070000      -1.27850000
C       -2.60080000      -2.14870000      -0.90270000
C       -2.63500000      -3.10050000      -2.08060000
C       -1.47810000      -2.21500000       0.17160000
C       -0.26350000      -3.07690000      -0.15860000
H        0.62840000       1.87230000      -1.28590000
H       -0.88980000       1.23960000      -1.95670000
H       -0.88240000       2.04480000      -0.38000000
H        0.53280000      -0.59450000      -1.03960000
H        0.17370000       0.82910000       1.66090000
H        0.93360000      -0.75360000       1.44480000
H        1.69000000       0.69170000       0.76340000
H       -1.93290000      -0.11750000       0.67980000
H       -3.59530000      -2.12190000      -0.42970000
H       -1.66550000      -3.16190000      -2.58100000
H       -2.92870000      -4.10500000      -1.75700000
H       -3.37160000      -2.75300000      -2.81220000
H       -1.84210000      -2.46740000       1.17130000
H        0.15090000      -2.85180000      -1.14490000
H        0.53370000      -2.93490000       0.57760000
H       -0.53280000      -4.13840000      -0.14750000
