18
Properties=species:S:1:pos:R:3 gdb_59038=T pbc="F F F"
C        0.12380000       1.53410000       0.17590000
C       -0.04260000       0.01340000       0.02490000
O       -1.40660000      -0.36010000      -0.02970000
C        0.70230000      -0.49740000      -1.18560000
C        1.89050000      -1.09490000      -1.29860000
C        2.17800000      -1.37530000      -2.74300000
O        1.02830000      -0.88290000      -3.44450000
C        0.14190000      -0.36700000      -2.54520000
N       -0.98970000       0.13400000      -2.83430000
H        1.17420000       1.80770000       0.32140000
H       -0.24990000       2.04800000      -0.71460000
H       -0.45310000       1.87270000       1.04070000
H        0.36790000      -0.47710000       0.91550000
H       -1.73080000      -0.07740000      -0.90130000
H        2.57330000      -1.35500000      -0.50000000
H        3.07090000      -0.85680000      -3.11590000
H        2.29380000      -2.44490000      -2.96090000
H       -1.17100000       0.10840000      -3.83710000
