19
Properties=species:S:1:pos:R:3 gdb_16490=T pbc="F F F"
C        0.04660000       1.68010000      -0.04220000
C        0.11270000       0.16070000       0.03960000
C        1.10830000      -0.66810000      -0.80370000
C        2.52700000      -0.17870000      -0.45900000
C        2.21470000      -0.74680000       0.91190000
N        1.19570000      -1.71380000       0.35740000
C        0.75910000      -0.55840000       1.21940000
C        0.18500000      -0.76050000       2.58840000
H        1.02350000       2.14390000       0.12180000
H       -0.32150000       2.00570000      -1.02150000
H       -0.63850000       2.07830000       0.71430000
H       -0.88750000      -0.26740000      -0.10150000
H        0.85310000      -1.00470000      -1.80720000
H        3.28090000      -0.78810000      -0.96450000
H        2.77420000       0.88140000      -0.57430000
H        2.91700000      -1.05820000       1.67820000
H        0.21470000       0.16830000       3.16960000
H       -0.85690000      -1.09350000       2.53130000
H        0.75050000      -1.52000000       3.13720000
