14
Properties=species:S:1:pos:R:3 gdb_902=T pbc="F F F"
C       -0.04870000       1.45020000      -0.00480000
N       -0.03300000       0.00500000       0.00550000
C       -0.01470000      -0.80040000      -1.09670000
C        0.07040000      -2.11390000      -0.68310000
C        0.10820000      -2.08970000       0.73730000
O        0.18330000      -3.14980000       1.59590000
C        0.04660000      -0.77530000       1.14250000
H        0.92090000       1.86760000       0.29130000
H       -0.28370000       1.79840000      -1.01260000
H       -0.81390000       1.83130000       0.67890000
H       -0.06270000      -0.37720000      -2.08760000
H        0.08910000      -2.98550000      -1.32050000
H        0.21860000      -3.95670000       1.07490000
H        0.05040000      -0.34140000       2.12810000
