18
Properties=species:S:1:pos:R:3 gdb_17393=T pbc="F F F"
C       -0.03420000       1.55080000      -0.07810000
C        1.51080000       1.55000000       0.09300000
C        1.41350000       0.09860000       0.61680000
C       -0.00490000      -0.00110000      -0.00160000
C        2.48620000      -1.02430000       0.41410000
C        2.53270000      -1.19370000       1.93810000
O        2.89260000       0.07820000       2.49450000
C        1.52400000      -0.14210000       2.13270000
H       -0.54130000       1.99300000       0.78380000
H       -0.44240000       2.00000000      -0.98590000
H        2.02530000       1.59350000      -0.87220000
H        1.96280000       2.28550000       0.76230000
H       -0.77780000      -0.50310000       0.58830000
H        0.02370000      -0.45920000      -0.99510000
H        2.07350000      -1.89310000      -0.10700000
H        3.43130000      -0.73080000      -0.05100000
H        2.76260000      -2.07300000       2.52860000
H        0.77510000      -0.00170000       2.90540000
