15
Properties=species:S:1:pos:R:3 gdb_126237=T pbc="F F F"
C       -0.31930000       1.57270000      -0.06290000
C        0.09760000       0.09570000       0.06120000
C        0.79960000      -0.42540000      -1.14920000
C        2.11380000      -0.80040000      -1.37730000
N        2.25410000      -1.19710000      -2.68450000
N        1.11030000      -1.08960000      -3.27440000
N        0.22790000      -0.62400000      -2.35680000
C        3.18000000      -0.79510000      -0.44340000
N        4.02240000      -0.77520000       0.35020000
H        0.55170000       2.21130000      -0.23220000
H       -1.01640000       1.72670000      -0.89270000
H       -0.81310000       1.90200000       0.85500000
H        0.77040000      -0.02930000       0.91430000
H       -0.78450000      -0.52340000       0.26560000
H       -0.73150000      -0.47810000      -2.63140000
