21
Properties=species:S:1:pos:R:3 gdb_103858=T pbc="F F F"
C       -0.71180000       1.13960000       0.29810000
C        0.19640000      -0.03510000      -0.09260000
C        1.02060000      -0.56160000       1.07030000
C        2.02390000       0.40160000       1.67420000
O        0.28050000      -1.31940000       2.05680000
C        1.25130000      -2.00870000       1.27710000
C        0.78830000      -3.14680000       0.41700000
C       -0.35190000      -3.98260000       0.82430000
O       -0.45880000      -3.06190000      -0.26350000
H       -0.14440000       2.02370000       0.60470000
H       -1.34120000       1.43100000      -0.54780000
H       -1.36980000       0.85510000       1.12500000
H       -0.41490000      -0.84710000      -0.48510000
H        0.88360000       0.27370000      -0.89130000
H        1.52340000       1.29400000       2.06120000
H        2.56270000      -0.06660000       2.50160000
H        2.75110000       0.72430000       0.92130000
H        2.15840000      -2.28150000       1.82670000
H        1.58710000      -3.61220000      -0.16360000
H       -0.37930000      -5.03540000       0.54920000
H       -0.90670000      -3.70220000       1.71670000
