16
Properties=species:S:1:pos:R:3 gdb_85023=T pbc="F F F"
C       -0.24960000       1.59670000       0.08940000
C        0.13790000       0.13110000       0.01790000
O        1.00960000      -0.11560000      -1.11630000
C        2.13440000      -0.78180000      -0.74270000
N        3.18360000      -0.93950000      -1.42200000
C        1.99210000      -1.31020000       0.66620000
O        3.18300000      -1.41350000       1.37320000
C        0.94320000      -0.35500000       1.23580000
O        0.76590000      -0.02480000       2.37300000
H        0.64020000       2.22760000       0.16310000
H       -0.81850000       1.88930000      -0.79600000
H       -0.86230000       1.75920000       0.97970000
H       -0.75380000      -0.49910000      -0.09970000
H        3.13190000      -0.48270000      -2.33250000
H        1.47050000      -2.28740000       0.59300000
H        3.88260000      -1.42520000       0.70260000
