17
Properties=species:S:1:pos:R:3 gdb_33158=T pbc="F F F"
O       -0.11080000       1.44330000       0.00550000
C        0.01820000       0.03790000       0.10830000
C       -1.38700000      -0.53930000      -0.07420000
N       -1.40700000      -1.98580000       0.00160000
C       -1.49250000      -2.85090000      -1.03900000
N       -1.43080000      -4.11090000      -0.64940000
C       -1.29470000      -4.05090000       0.70650000
O       -1.20340000      -5.17130000       1.45630000
C       -1.27280000      -2.75390000       1.15270000
H        0.75600000       1.83950000       0.13060000
H        0.68200000      -0.37580000      -0.66620000
H        0.41850000      -0.26860000       1.08630000
H       -2.05270000      -0.12020000       0.68680000
H       -1.77470000      -0.23880000      -1.05120000
H       -1.60560000      -2.51010000      -2.05750000
H       -1.26090000      -5.91010000       0.83830000
H       -1.19540000      -2.31930000       2.13350000
