23
Properties=species:S:1:pos:R:3 gdb_108373=T pbc="F F F"
C        0.24700000      -1.40200000       0.89590000
C        1.67150000      -1.51070000       0.33110000
C        1.70610000      -1.25190000      -1.14510000
O        0.97210000      -2.19240000      -1.95790000
C        2.03220000      -2.19390000      -2.94970000
C        2.78690000      -1.10560000      -2.20580000
C        1.85470000       0.06190000      -1.87740000
C        0.79240000       0.54700000      -2.84500000
C        2.54820000       1.17860000      -1.11470000
H       -0.15100000      -0.38970000       0.77170000
H       -0.42420000      -2.09260000       0.37790000
H        0.23070000      -1.64440000       1.96260000
H        2.33430000      -0.80470000       0.84120000
H        2.06730000      -2.51530000       0.52350000
H        2.54880000      -3.16090000      -2.95560000
H        1.66210000      -1.97100000      -3.95770000
H        3.86310000      -1.03060000      -2.10950000
H        0.19890000      -0.28120000      -3.23630000
H        0.10420000       1.23420000      -2.33930000
H        1.23960000       1.08910000      -3.68630000
H        3.00680000       1.88810000      -1.81340000
H        1.83750000       1.73770000      -0.49560000
H        3.34240000       0.80480000      -0.46160000
