17
Properties=species:S:1:pos:R:3 gdb_84407=T pbc="F F F"
C       -0.09860000       1.57450000       0.03320000
C        0.02720000       0.04360000      -0.02980000
C        0.83420000      -0.50660000      -1.17970000
C        1.84600000      -1.23960000      -0.71300000
N        1.84110000      -1.26930000       0.69990000
C        2.75660000      -1.92660000       1.50530000
N        3.71270000      -2.59670000       1.00320000
C        0.77120000      -0.50630000       1.19600000
O        0.52640000      -0.32910000       2.36490000
H        0.88600000       2.04890000      -0.01310000
H       -0.69670000       1.94660000      -0.80310000
H       -0.58080000       1.86810000       0.96920000
H       -0.98330000      -0.38830000      -0.01350000
H        0.61670000      -0.32800000      -2.22240000
H        2.62390000      -1.78590000      -1.22270000
H        2.52860000      -1.77870000       2.56350000
H        4.28010000      -3.00750000       1.74190000
