15
Properties=species:S:1:pos:R:3 gdb_20157=T pbc="F F F"
C       -0.03830000       1.57250000       0.00180000
C        1.47740000       1.73360000      -0.02120000
C        1.98160000       0.54020000       0.89170000
O        0.80170000      -0.15000000       1.28440000
C        0.06150000       0.03380000       0.06410000
C        1.10440000      -0.25490000      -1.05080000
C        2.43500000      -0.12470000      -0.41750000
N        1.91660000       0.99020000      -1.27170000
H       -0.53150000       1.98590000       0.88380000
H       -0.49670000       1.95060000      -0.91560000
H        1.92540000       2.71910000       0.07810000
H        2.65670000       0.69340000       1.72930000
H       -0.84660000      -0.56410000       0.07210000
H        0.90960000      -0.87100000      -1.91830000
H        3.32670000      -0.69610000      -0.64770000
