17
Properties=species:S:1:pos:R:3 gdb_48137=T pbc="F F F"
O       -0.81060000       1.33960000       0.16410000
C        0.32990000       0.96430000       0.24970000
C        1.53800000       1.90460000       0.13350000
O        2.64330000       1.44870000       0.29800000
C        1.23230000       3.36940000      -0.15000000
C        0.74240000       4.08380000       1.15170000
C        1.66000000       5.31920000       1.22260000
C        2.90030000       4.84060000       0.46530000
O        2.38280000       4.05230000      -0.60330000
H        0.61720000      -0.09320000       0.43090000
H        0.46860000       3.41580000      -0.93400000
H       -0.31900000       4.32700000       1.09890000
H        0.89060000       3.44550000       2.02850000
H        1.20580000       6.16420000       0.69650000
H        1.87420000       5.62790000       2.24850000
H        3.49300000       5.64620000       0.02490000
H        3.55400000       4.23490000       1.10970000
