23
Properties=species:S:1:pos:R:3 gdb_63171=T pbc="F F F"
C        0.01250000       1.60030000       0.10310000
C        0.08210000       0.08890000       0.07390000
O       -1.15380000      -0.47220000      -0.32440000
C        1.29270000      -0.72440000      -0.35030000
C        2.68470000      -0.11160000      -0.39640000
C        2.93280000       0.51360000       1.00310000
C        1.87420000      -0.10210000       1.95620000
C        0.79880000      -0.76990000       1.09410000
C        0.10200000      -1.97020000       1.69600000
H        0.92780000       2.07050000       0.46140000
H       -0.18490000       1.99140000      -0.90360000
H       -0.81310000       1.91820000       0.74810000
H       -1.27970000      -0.25950000      -1.25570000
H        1.07370000      -1.55420000      -1.01610000
H        3.40990000      -0.90900000      -0.59480000
H        2.80700000       0.62620000      -1.19780000
H        3.94900000       0.31400000       1.35460000
H        2.84020000       1.60180000       0.96360000
H        2.33100000      -0.87920000       2.57990000
H        1.46160000       0.64320000       2.64580000
H       -0.40830000      -1.70140000       2.62900000
H       -0.64600000      -2.37640000       1.01470000
H        0.82730000      -2.75740000       1.93410000
