12
Properties=species:S:1:pos:R:3 gdb_2143=T pbc="F F F"
O        0.19860000       1.39150000      -0.23300000
C        0.07670000       0.00620000       0.00170000
C        0.64140000      -0.52960000       1.29630000
C       -0.28540000      -1.29300000       1.88320000
N       -1.47530000      -1.34000000       1.13590000
C       -1.40190000      -0.49200000       0.04150000
O       -2.30730000      -0.19610000      -0.69710000
H       -0.25440000       1.85490000       0.48010000
H        0.55690000      -0.47360000      -0.86170000
H        1.65010000      -0.36250000       1.64140000
H       -0.22080000      -1.86370000       2.79940000
H       -2.35390000      -1.69700000       1.47550000
