20
Properties=species:S:1:pos:R:3 gdb_116546=T pbc="F F F"
C        0.30100000       1.33000000       0.18690000
C        0.38040000      -0.19550000       0.02900000
N       -0.88450000      -0.84550000       0.30960000
C       -1.72970000      -1.03380000      -0.63200000
N       -1.65840000      -0.61740000      -1.93570000
C       -2.18710000      -1.36210000      -3.07610000
N       -2.87790000      -1.78380000      -0.25780000
C       -4.20140000      -1.56490000      -0.55720000
O       -4.64830000      -0.84330000      -1.41770000
H        1.28550000       1.78780000       0.04560000
H       -0.39010000       1.77200000      -0.53870000
H       -0.06140000       1.58620000       1.18640000
H        0.77330000      -0.44260000      -0.97480000
H        1.11680000      -0.58500000       0.74130000
H       -0.81520000      -0.10190000      -2.13010000
H       -3.27650000      -1.36480000      -3.05160000
H       -1.86750000      -0.84880000      -3.98560000
H       -1.81450000      -2.39410000      -3.11500000
H       -2.70730000      -2.25220000       0.62210000
H       -4.84630000      -2.17750000       0.10340000
