15
Properties=species:S:1:pos:R:3 gdb_13849=T pbc="F F F"
N       -0.03620000       1.37530000      -0.01880000
C        0.04740000      -0.00910000      -0.00580000
O        1.09790000      -0.61340000       0.07450000
N       -1.17030000      -0.67040000      -0.05320000
C       -1.25180000      -2.13890000      -0.05610000
C       -2.79070000      -2.35300000      -0.01890000
N       -3.39920000      -1.02860000       0.22410000
C       -2.45340000      -0.18020000       0.17980000
H        0.86910000       1.80440000      -0.14050000
H       -0.76790000       1.80320000      -0.56550000
H       -0.77050000      -2.54820000      -0.94660000
H       -0.73680000      -2.54300000       0.82020000
H       -3.17430000      -2.75050000      -0.96530000
H       -3.09590000      -3.04810000       0.76810000
H       -2.59660000       0.88420000       0.33040000
