15
Properties=species:S:1:pos:R:3 gdb_42146=T pbc="F F F"
O        0.04070000      -0.02250000      -0.46400000
C       -0.02850000       1.15120000      -0.14910000
C        1.15710000       1.94810000       0.11620000
C        2.14700000       2.59750000       0.33350000
C       -1.26980000       1.86290000      -0.00830000
C       -2.32050000       2.45220000       0.10740000
C       -3.56050000       3.14070000       0.24240000
C       -3.70960000       4.22750000       1.30500000
C       -3.64950000       4.61800000      -0.13450000
H        3.02630000       3.16350000       0.52340000
H       -4.44500000       2.54380000       0.04350000
H       -4.66260000       4.26970000       1.81930000
H       -2.84520000       4.42450000       1.92700000
H       -2.74380000       5.08380000      -0.50290000
H       -4.56040000       4.93400000      -0.62940000
