18
Properties=species:S:1:pos:R:3 gdb_38851=T pbc="F F F"
C       -0.02540000       1.55460000       0.05180000
O        1.34960000       1.92420000      -0.05390000
C        2.12590000       0.72950000       0.06830000
C        2.62910000       0.27910000      -1.30910000
C        1.47020000      -0.24210000      -2.15070000
N        0.94990000      -1.57940000      -1.79510000
C        0.13330000      -0.39510000      -1.51140000
C        0.03030000       0.02280000      -0.05170000
O        1.26150000      -0.23970000       0.61920000
H       -0.43610000       1.87920000       1.01630000
H       -0.59210000       2.02620000      -0.75810000
H        2.94320000       0.90380000       0.77490000
H        3.10150000       1.13490000      -1.80130000
H        3.38650000      -0.50210000      -1.18400000
H        1.49430000       0.01350000      -3.20670000
H        0.59920000      -2.04550000      -2.62790000
H       -0.75740000      -0.21260000      -2.10960000
H       -0.76610000      -0.49810000       0.48410000
