20
Properties=species:S:1:pos:R:3 gdb_60612=T pbc="F F F"
C       -2.17710000       1.05700000       2.18370000
C       -1.55220000      -0.29940000       1.78630000
C       -0.07110000      -0.31190000       2.14910000
N        0.34180000      -0.93990000       3.42440000
H        1.03090000      -0.39290000       3.92840000
H       -1.20970000      -1.58240000       3.80780000
C        0.85290000      -1.48020000       2.14570000
C        0.49300000      -2.89490000       1.75830000
C       -2.45890000      -1.40030000       2.37220000
O       -3.46390000      -1.73860000       1.80200000
O       -2.12370000      -1.89440000       3.56970000
H       -1.64890000       1.88310000       1.69700000
H       -3.22610000       1.09010000       1.88220000
H       -2.12470000       1.20890000       3.26690000
H       -1.64000000      -0.40630000       0.70040000
H        0.40800000       0.63960000       1.92110000
H        1.88790000      -1.22070000       1.92670000
H       -0.52860000      -3.15630000       2.03460000
H        0.60610000      -3.02790000       0.67750000
H        1.16490000      -3.60300000       2.25440000
