20
Properties=species:S:1:pos:R:3 gdb_82191=T pbc="F F F"
C       -0.18030000       1.47090000       0.01230000
C        0.01320000      -0.02720000       0.00760000
C       -0.74900000      -0.87070000       1.00030000
C        0.75500000      -0.77090000       1.10200000
C        1.56570000      -1.86850000       0.43920000
N        0.76110000      -2.88840000      -0.28040000
C        1.39510000      -1.78160000      -1.02900000
C        0.38310000      -0.67670000      -1.35020000
O       -0.71700000      -1.14810000      -2.10510000
H        0.71040000       1.99330000      -0.35750000
H       -1.02290000       1.75570000      -0.62850000
H       -0.38970000       1.84180000       1.02080000
H       -1.33310000      -0.33100000       1.73920000
H       -1.16930000      -1.82150000       0.69770000
H        1.20450000      -0.25130000       1.94130000
H        2.49960000      -2.18220000       0.89280000
H        1.30820000      -3.73720000      -0.39690000
H        2.18160000      -2.01270000      -1.74000000
H        0.86430000       0.08450000      -1.97470000
H       -0.98660000      -1.97270000      -1.68040000
