15
Properties=species:S:1:pos:R:3 gdb_71042=T pbc="F F F"
O       -0.13520000       1.34830000      -0.14720000
C       -0.02130000      -0.01590000      -0.06670000
C        0.62130000      -0.90430000      -1.23370000
C       -0.16950000      -1.98840000      -0.53470000
C        0.41100000      -2.80230000       0.38090000
C        0.31550000      -2.10250000       1.70790000
O        0.78720000      -2.43330000       2.77030000
C       -0.27150000      -0.75660000       1.34500000
C       -1.12010000      -0.97940000       0.11210000
H        0.69500000       1.74540000       0.14080000
H        0.20610000      -0.50380000      -2.16350000
H        1.70360000      -1.03770000      -1.30930000
H        1.25960000      -3.45020000       0.18720000
H       -0.59080000      -0.06710000       2.12080000
H       -2.19690000      -0.90290000       0.04720000
