21
Properties=species:S:1:pos:R:3 gdb_87148=T pbc="F F F"
C        0.14480000       1.27660000      -0.38260000
C        0.30600000      -0.16730000       0.01590000
O        1.62500000      -0.61230000       0.38450000
C        0.58850000      -0.66230000       1.37590000
C        0.75540000       0.26190000       2.56280000
C        0.14220000      -2.06290000       1.73870000
O       -1.11600000      -2.10320000       2.36750000
C        0.43980000      -3.21090000       0.82800000
C        1.17350000      -3.08320000       2.14950000
H        0.67470000       1.95380000       0.28940000
H        0.53560000       1.43220000      -1.39380000
H       -0.91620000       1.54900000      -0.39040000
H       -0.20990000      -0.87010000      -0.64110000
H        1.13670000       1.23910000       2.26520000
H       -0.20280000       0.40590000       3.07260000
H        1.46270000      -0.17150000       3.27860000
H       -0.99050000      -1.89430000       3.29910000
H       -0.32770000      -3.97190000       0.75250000
H        1.00310000      -3.00920000      -0.07490000
H        2.21880000      -2.79540000       2.11980000
H        0.90170000      -3.77020000       2.94370000
