19
Properties=species:S:1:pos:R:3 gdb_59151=T pbc="F F F"
C        0.26430000       1.08310000      -0.54170000
C        0.16950000      -0.15800000       0.34600000
O        0.26010000       0.19810000       1.73330000
C       -1.18610000      -0.85180000       0.23230000
C       -2.02040000      -1.19610000      -0.97860000
C       -1.23060000      -1.87210000      -2.13770000
O        0.16260000      -1.92630000      -1.80050000
C       -0.72980000      -2.90640000      -1.24270000
C       -1.50760000      -2.29540000      -0.03440000
H        1.21300000       1.60570000      -0.37130000
H        0.21870000       0.80700000      -1.59810000
H       -0.55170000       1.77820000      -0.31930000
H        0.97400000      -0.85140000       0.08900000
H        1.11900000       0.61010000       1.86960000
H       -1.83640000      -0.46550000       1.01690000
H       -3.03840000      -0.84690000      -1.09710000
H       -1.49570000      -1.88710000      -3.18780000
H       -0.48980000      -3.95020000      -1.40370000
H       -2.08330000      -2.90810000       0.64740000
