22
Properties=species:S:1:pos:R:3 gdb_10077=T pbc="F F F"
C        0.19540000       1.06680000       0.57070000
C       -0.11420000      -0.41660000       0.34530000
C       -1.56470000      -0.71360000      -0.08410000
C       -1.97750000      -0.04220000      -1.41430000
C       -1.24260000      -0.53170000      -2.66830000
C       -1.79960000      -2.24330000      -0.10700000
C       -3.23630000      -2.60090000      -0.39920000
O       -3.61200000      -3.26230000      -1.33370000
H        1.20980000       1.19520000       0.96110000
H        0.12590000       1.64770000      -0.35380000
H       -0.49710000       1.51060000       1.29500000
H        0.58060000      -0.82890000      -0.39700000
H        0.08460000      -0.96520000       1.27470000
H       -2.22230000      -0.29700000       0.69410000
H       -3.05470000      -0.19290000      -1.56000000
H       -1.84540000       1.04080000      -1.31400000
H       -0.15800000      -0.40540000      -2.58680000
H       -1.44610000      -1.58770000      -2.86830000
H       -1.57150000       0.03440000      -3.54510000
H       -1.15840000      -2.74100000      -0.83990000
H       -1.55480000      -2.64790000       0.88540000
H       -3.96860000      -2.18780000       0.33590000
