13
Properties=species:S:1:pos:R:3 gdb_129072=T pbc="F F F"
N       -0.04770000       1.33920000       0.01080000
C       -0.01700000       0.05680000       0.00340000
C        1.19680000      -0.77550000      -0.00840000
N        1.25130000      -2.06620000      -0.01610000
N        0.06640000      -2.71970000      -0.01280000
C       -1.14160000      -2.10740000      -0.00220000
C       -1.24320000      -0.74860000       0.00610000
C       -2.52770000      -0.13700000       0.01710000
N       -3.58760000       0.32920000       0.02600000
H        0.89940000       1.72320000       0.00740000
H        2.16100000      -0.27250000      -0.01130000
H        0.14690000      -3.72280000      -0.01890000
H       -2.00610000      -2.75980000      -0.00080000
