18
Properties=species:S:1:pos:R:3 gdb_99590=T pbc="F F F"
C        0.12790000       1.39000000       0.16170000
O       -0.15000000       0.02350000      -0.10380000
C        0.59770000      -0.52640000      -1.15800000
C        2.04020000      -0.58970000      -0.81770000
N        3.16330000      -0.62730000      -0.54880000
C        0.03980000      -1.93030000      -1.46520000
C       -1.44910000      -1.85080000      -1.85280000
C        0.80010000      -2.58290000      -2.61050000
O        1.06980000      -3.75240000      -2.66000000
H        1.16810000       1.53590000       0.48020000
H       -0.06600000       2.01480000      -0.72220000
H       -0.54130000       1.69150000       0.96900000
H        0.50980000       0.10280000      -2.06160000
H        0.16090000      -2.56000000      -0.57960000
H       -2.01440000      -1.35420000      -1.06290000
H       -1.58680000      -1.28590000      -2.78210000
H       -1.84970000      -2.85620000      -2.00240000
H        1.05090000      -1.89760000      -3.45500000
