18
Properties=species:S:1:pos:R:3 gdb_86501=T pbc="F F F"
C       -0.27880000       1.45050000      -0.03520000
C       -0.00640000      -0.05040000      -0.00220000
C        1.19120000      -0.50470000      -0.88740000
C        2.08900000      -0.55520000       0.39560000
C        0.77810000      -0.53260000       1.25340000
C        2.99710000      -1.66280000       0.55640000
C        3.74010000      -2.60900000       0.68750000
C        4.57860000      -3.67470000       0.83540000
N        5.29250000      -4.58320000       0.96140000
H        0.63310000       2.03070000       0.14830000
H       -0.67460000       1.75630000      -1.00950000
H       -1.01010000       1.73370000       0.72920000
H       -0.93490000      -0.59590000      -0.18840000
H        1.04820000      -1.50060000      -1.31130000
H        1.52060000       0.17470000      -1.67690000
H        2.64070000       0.38270000       0.51430000
H        0.78690000       0.12530000       2.12540000
H        0.49250000      -1.53810000       1.56850000
