20
Properties=species:S:1:pos:R:3 gdb_14749=T pbc="F F F"
C        0.00220000       1.57200000       0.01820000
C       -0.00110000       0.04120000       0.00600000
C       -1.41360000      -0.55250000       0.00770000
C       -1.42020000      -2.07990000       0.00450000
N       -2.78640000      -2.59800000      -0.03360000
C       -2.83450000      -4.05330000       0.01260000
C       -4.21750000      -4.53860000       0.02370000
N       -5.30640000      -4.92240000       0.05650000
H        1.02220000       1.96830000       0.01520000
H       -0.51520000       1.97560000      -0.85900000
H       -0.50410000       1.96180000       0.90820000
H        0.54160000      -0.31970000      -0.87760000
H        0.55320000      -0.33380000       0.87650000
H       -1.95760000      -0.19120000       0.89250000
H       -1.97430000      -0.19660000      -0.86480000
H       -0.89840000      -2.44880000      -0.88910000
H       -0.84890000      -2.45700000       0.87470000
H       -3.31920000      -2.21950000       0.74370000
H       -2.33740000      -4.45120000      -0.88130000
H       -2.31230000      -4.49800000       0.88070000
