17
Properties=species:S:1:pos:R:3 gdb_91591=T pbc="F F F"
O        0.07530000       1.42330000      -0.08710000
C        0.11000000       0.02740000       0.09450000
C        0.18090000      -0.57360000       1.54860000
C       -1.14180000      -1.30060000       1.27710000
C       -2.21450000      -0.27730000       0.98950000
C       -1.23770000      -0.64310000      -0.09070000
O       -1.63740000      -1.22340000      -1.29890000
C       -2.30600000      -0.41400000      -2.16090000
O       -2.66650000      -0.79080000      -3.23340000
H        0.97450000       1.76390000      -0.04620000
H        0.85810000      -0.44750000      -0.55300000
H        1.03970000      -1.23130000       1.69570000
H        0.14620000       0.16950000       2.35030000
H       -1.37960000      -2.32090000       1.54620000
H       -3.20630000      -0.69090000       0.83780000
H       -2.19010000       0.70360000       1.45540000
H       -2.46420000       0.59990000      -1.75300000
