19
Properties=species:S:1:pos:R:3 gdb_31074=T pbc="F F F"
C        0.06190000       1.42180000      -0.13130000
O        0.03740000       0.01110000      -0.04930000
C       -1.19370000      -0.56540000      -0.00290000
C       -1.38920000      -1.91300000       0.07720000
C       -0.45980000      -3.06700000       0.13430000
O       -2.74000000      -2.15860000       0.10560000
C       -3.39080000      -0.96720000       0.04350000
C       -4.87660000      -1.00920000       0.06150000
C       -2.49060000       0.05280000      -0.02510000
H        1.11370000       1.71280000      -0.15920000
H       -0.43460000       1.78390000      -1.04170000
H       -0.41580000       1.88720000       0.74150000
H       -0.58410000      -3.65060000       1.05480000
H       -0.60260000      -3.75290000      -0.70970000
H        0.56730000      -2.69620000       0.10210000
H       -5.27450000      -1.58040000      -0.78540000
H       -5.25600000      -1.47840000       0.97690000
H       -5.27790000       0.00530000       0.00700000
H       -2.72450000       1.10330000      -0.08350000
