25
Properties=species:S:1:pos:R:3 gdb_116203=T pbc="F F F"
C        0.02740000       1.60440000       0.08520000
C       -0.00600000       0.07280000       0.03890000
C        0.70550000      -0.52050000      -1.18140000
C        2.21230000      -0.19370000      -1.26620000
C        2.77260000      -1.26730000      -2.20970000
C        2.04670000      -2.54480000      -1.75410000
C        0.65560000      -2.06450000      -1.30940000
C       -0.16440000      -2.94300000      -0.39590000
C       -0.58530000      -2.74460000      -1.83050000
H        1.05140000       1.98330000       0.16130000
H       -0.41890000       2.03690000      -0.81760000
H       -0.53080000       1.98470000       0.94640000
H        0.44560000      -0.33430000       0.95300000
H       -1.05380000      -0.25510000       0.04450000
H        0.22810000      -0.10000000      -2.07930000
H        2.40770000       0.82580000      -1.61000000
H        2.67020000      -0.29730000      -0.27250000
H        2.50330000      -1.02680000      -3.24560000
H        3.86200000      -1.35600000      -2.16850000
H        1.99930000      -3.31120000      -2.53410000
H        2.58130000      -2.98630000      -0.90340000
H        0.25910000      -3.90280000      -0.11510000
H       -0.76740000      -2.48590000       0.38060000
H       -1.46120000      -2.12950000      -2.01800000
H       -0.46880000      -3.57130000      -2.52440000
