22
Properties=species:S:1:pos:R:3 gdb_113172=T pbc="F F F"
C        0.42860000       1.56020000       0.01920000
C       -0.18350000       0.17160000      -0.15180000
N        0.52280000      -0.55710000      -1.20350000
C        1.63990000      -1.39780000      -0.83410000
C        0.35840000      -2.01420000      -1.33970000
C       -0.48900000      -2.83340000      -0.38480000
C        0.31310000      -2.50780000      -2.77260000
C        0.82680000      -1.59130000      -3.86520000
O       -0.13400000      -3.60730000      -3.02010000
H        1.47430000       1.48950000       0.33610000
H        0.39810000       2.11360000      -0.92330000
H       -0.11690000       2.12950000       0.77790000
H       -0.17010000      -0.35720000       0.81410000
H       -1.23290000       0.26020000      -0.45560000
H        2.52740000      -1.33830000      -1.45910000
H        1.84400000      -1.55220000       0.22590000
H       -0.31890000      -2.55660000       0.65690000
H       -1.55450000      -2.71700000      -0.60770000
H       -0.24950000      -3.89110000      -0.50950000
H        0.27530000      -0.64770000      -3.85270000
H        1.87920000      -1.33320000      -3.70800000
H        0.71460000      -2.09300000      -4.82680000
