17
Properties=species:S:1:pos:R:3 gdb_64882=T pbc="F F F"
C       -0.23500000       1.78380000      -0.08260000
C        0.13990000       0.31820000       0.05340000
C        0.66790000      -0.42180000      -1.19030000
C        1.98570000      -0.55390000      -0.38180000
O        1.41160000       0.13850000       0.75030000
C        2.38820000      -1.97610000      -0.04570000
O        3.24860000      -2.58050000      -0.62910000
C       -0.91590000      -0.44090000       0.84790000
O       -1.63080000      -1.29710000       0.39830000
H        0.57390000       2.33410000      -0.57100000
H       -1.14720000       1.89220000      -0.67880000
H       -0.40760000       2.23120000       0.90180000
H        0.14080000      -1.35240000      -1.40550000
H        0.74840000       0.17690000      -2.09720000
H        2.84590000      -0.02120000      -0.79920000
H        1.79490000      -2.42750000       0.78170000
H       -0.95250000      -0.14200000       1.91950000
