19
Properties=species:S:1:pos:R:3 gdb_81029=T pbc="F F F"
C       -0.00850000       1.53620000       0.07290000
C       -0.07320000       0.03360000      -0.02720000
C        0.83690000      -0.58000000      -1.09350000
O        0.54640000      -1.96080000      -1.28740000
C        0.18710000      -2.65120000      -0.09520000
C       -0.62050000      -1.73350000       0.80980000
O        0.26010000      -0.64820000       1.23810000
C       -1.44050000      -0.71640000      -0.01420000
O       -2.46050000      -0.07160000       0.70260000
H        0.99720000       1.85670000       0.36310000
H       -0.25520000       1.99730000      -0.88850000
H       -0.71690000       1.90550000       0.81790000
H        0.69040000      -0.10230000      -2.06810000
H        1.88260000      -0.43370000      -0.78120000
H       -0.39400000      -3.52480000      -0.40990000
H        1.07780000      -2.99650000       0.45180000
H       -1.10120000      -2.24580000       1.64840000
H       -1.86060000      -1.03480000      -0.96900000
H       -2.10260000       0.15240000       1.57040000
