17
Properties=species:S:1:pos:R:3 gdb_87329=T pbc="F F F"
C        0.19940000       1.47240000      -0.00110000
C        0.15940000      -0.03750000       0.01730000
C        1.40790000      -0.85680000       0.08260000
C        0.50000000      -0.81400000       1.30070000
N        0.94570000      -0.08850000       2.45230000
C        2.14430000      -0.31160000       3.08440000
O        3.01610000      -1.05020000       2.69560000
C       -0.30730000      -1.97880000       1.59150000
N       -0.97820000      -2.89060000       1.82970000
H        1.01740000       1.85860000       0.61190000
H        0.35000000       1.82950000      -1.02480000
H       -0.73850000       1.90240000       0.36610000
H       -0.66250000      -0.47870000      -0.53860000
H        1.45910000      -1.79550000      -0.45500000
H        2.35690000      -0.35050000       0.20510000
H        0.26460000       0.47340000       2.94160000
H        2.22750000       0.30410000       4.00200000
