22
Properties=species:S:1:pos:R:3 gdb_23367=T pbc="F F F"
C        0.35990000       1.29200000      -0.35220000
C       -0.00530000      -0.13300000       0.11640000
C        0.04740000      -1.10720000      -1.06800000
C        0.86190000      -0.57490000       1.28700000
N        1.78110000      -1.42500000       1.01350000
O        2.55240000      -1.76820000       2.13800000
C        0.62060000      -0.09060000       2.67610000
C        0.96750000       1.31870000       3.13140000
C       -0.46830000       0.88400000       3.05440000
H        1.39910000       1.32490000      -0.69540000
H       -0.28260000       1.59000000      -1.18730000
H        0.24160000       2.03950000       0.43650000
H       -1.03890000      -0.10730000       0.48590000
H        1.05280000      -1.15770000      -1.49280000
H       -0.23150000      -2.11900000      -0.76360000
H       -0.64310000      -0.77630000      -1.85070000
H        3.13790000      -2.44140000       1.77650000
H        0.84980000      -0.85380000       3.41080000
H        1.43280000       1.42200000       4.10520000
H        1.33240000       2.01850000       2.38920000
H       -1.08440000       1.30760000       2.26970000
H       -1.00360000       0.69750000       3.97890000
