21
Properties=species:S:1:pos:R:3 gdb_65659=T pbc="F F F"
O        0.53870000       1.30240000      -0.32440000
C        0.04670000       0.04640000       0.07860000
C       -1.38890000       0.19280000       0.53250000
C       -2.31820000       0.71750000      -0.55250000
C       -2.84870000      -0.25110000      -1.63560000
C       -4.23880000       0.18650000      -1.13640000
O       -3.66120000       0.93220000      -0.04610000
C        0.50800000      -1.19620000      -0.64100000
C        0.96540000      -0.91370000       0.78340000
H        1.42140000       1.18970000      -0.68960000
H       -1.76000000      -0.77000000       0.90020000
H       -1.42370000       0.89580000       1.37420000
H       -1.90790000       1.64570000      -0.96790000
H       -2.59970000      -0.01110000      -2.67010000
H       -2.61530000      -1.30050000      -1.44370000
H       -4.79120000       0.83630000      -1.82850000
H       -4.91200000      -0.60330000      -0.78300000
H       -0.19410000      -2.00580000      -0.80780000
H        1.23770000      -1.07860000      -1.43700000
H        1.99560000      -0.60300000       0.92740000
H        0.57120000      -1.52740000       1.58640000
