17
Properties=species:S:1:pos:R:3 gdb_51947=T pbc="F F F"
N       -0.23560000       0.14010000       1.40430000
C       -0.69200000      -0.34180000       0.33310000
O       -0.32510000      -1.59410000      -0.03800000
C       -1.00470000      -2.14250000      -1.16980000
C       -2.39460000      -2.61820000      -0.73550000
O       -3.35880000      -1.88420000      -0.76720000
N       -2.44420000      -3.93830000      -0.32830000
C       -1.70160000      -4.50280000       0.78910000
C       -3.20060000      -4.39530000       0.81200000
H       -0.57530000       1.09160000       1.52860000
H       -1.37460000       0.14130000      -0.37540000
H       -1.12060000      -1.39560000      -1.96200000
H       -0.38310000      -2.96600000      -1.52380000
H       -1.23390000      -5.46600000       0.60630000
H       -1.13140000      -3.81590000       1.40720000
H       -3.65210000      -3.63070000       1.43790000
H       -3.80210000      -5.28570000       0.65610000
