19
Properties=species:S:1:pos:R:3 gdb_78603=T pbc="F F F"
C       -0.18070000       1.59720000      -0.01010000
C       -0.02580000       0.08470000       0.00490000
C        1.19900000      -0.57070000      -0.67880000
C        2.14720000      -0.27100000       0.53850000
C        2.61610000      -1.73980000       0.59720000
O        3.07360000      -2.29400000       1.80790000
C        1.12400000      -1.83000000       0.23340000
O        0.35350000      -2.93480000      -0.06050000
C        0.74110000      -0.59750000       1.16170000
H        0.75690000       2.10760000       0.23310000
H       -0.50530000       1.94820000      -0.99610000
H       -0.93460000       1.92060000       0.71660000
H       -0.97450000      -0.40620000      -0.24000000
H        1.49650000      -0.56700000      -1.72870000
H        2.72920000       0.63370000       0.69470000
H        3.32220000      -2.06000000      -0.17560000
H        2.55380000      -1.91710000       2.52660000
H        0.49270000      -3.58800000       0.63440000
H        0.48580000      -0.61880000       2.22410000
