18
Properties=species:S:1:pos:R:3 gdb_55215=T pbc="F F F"
C        0.00340000       1.50630000      -0.00350000
C       -0.00930000      -0.00550000       0.02930000
O       -0.03190000      -0.63640000       1.06250000
C        0.03050000      -0.72580000      -1.31570000
C        1.48990000      -0.86290000      -1.82610000
C        1.48390000      -2.21430000      -2.55340000
O        2.32480000      -2.61870000      -3.30970000
C        0.19560000      -2.94270000      -2.14300000
N       -0.50170000      -2.08660000      -1.18900000
H        0.75340000       1.88140000      -0.70750000
H       -0.97120000       1.86510000      -0.35620000
H        0.19050000       1.90230000       0.99510000
H       -0.55550000      -0.15360000      -2.04800000
H        1.83980000      -0.06350000      -2.48200000
H        2.19100000      -0.94500000      -0.98540000
H       -0.40110000      -3.10990000      -3.05160000
H        0.42600000      -3.92990000      -1.73130000
H       -0.34360000      -2.38230000      -0.23020000
