23
Properties=species:S:1:pos:R:3 gdb_104886=T pbc="F F F"
C        0.98700000      -0.15550000       1.10000000
C        0.18110000      -0.17710000      -0.20070000
C       -1.24280000      -0.74270000      -0.07660000
C       -2.05680000      -0.41110000      -1.34370000
O       -2.30620000       0.97380000      -1.44890000
C       -1.32030000      -2.24590000       0.25630000
C       -2.52100000      -2.34300000       1.21120000
C       -2.43540000      -1.00800000       1.95420000
O       -1.92530000      -0.06640000       1.01220000
H        1.96350000       0.31060000       0.93750000
H        0.45990000       0.41830000       1.86650000
H        1.17000000      -1.16060000       1.49510000
H        0.09330000       0.84130000      -0.59370000
H        0.70940000      -0.76110000      -0.96570000
H       -1.49950000      -0.71030000      -2.23870000
H       -2.99830000      -0.98530000      -1.32920000
H       -2.60640000       1.23880000      -0.56910000
H       -1.44160000      -2.85200000      -0.64610000
H       -0.40640000      -2.57940000       0.75630000
H       -3.45890000      -2.40780000       0.65090000
H       -2.47080000      -3.20430000       1.88190000
H       -3.40220000      -0.64530000       2.31760000
H       -1.75340000      -1.08040000       2.81480000
