18
Properties=species:S:1:pos:R:3 gdb_96733=T pbc="F F F"
C        0.15110000       1.46430000      -0.68310000
N        0.09130000       0.14300000      -0.09930000
C       -0.96010000      -0.33950000       0.40170000
O       -0.92230000      -1.62520000       0.93460000
C        0.04250000      -2.50250000       0.51970000
O        0.16110000      -3.56900000       1.03930000
C       -2.30940000       0.24280000       0.57510000
C       -3.54970000      -0.62730000       0.43840000
C       -3.15290000      -0.12090000       1.78740000
H        0.87270000       2.06840000      -0.12160000
H        0.53670000       1.38240000      -1.70530000
H       -0.79790000       2.01370000      -0.72220000
H        0.63770000      -2.10880000      -0.31310000
H       -2.40260000       1.26130000       0.22380000
H       -4.40300000      -0.18170000      -0.05990000
H       -3.39490000      -1.67870000       0.23130000
H       -2.72830000      -0.83050000       2.48590000
H       -3.72760000       0.68140000       2.23560000
