14
Properties=species:S:1:pos:R:3 gdb_28650=T pbc="F F F"
N        0.00680000       1.38060000       0.13300000
C       -0.00330000       0.01220000       0.05420000
C       -1.20940000      -0.72530000       0.04250000
N       -1.22830000      -2.04270000       0.01230000
C       -0.03720000      -2.67990000      -0.00330000
C        1.15230000      -1.94220000       0.00640000
N        1.17860000      -0.61270000       0.03060000
C       -0.01530000      -4.10420000      -0.03300000
C        0.04080000      -5.30660000      -0.05800000
H        0.88860000       1.81830000      -0.08580000
H       -0.81520000       1.88170000      -0.16150000
H       -2.16980000      -0.21290000       0.05850000
H        2.11100000      -2.45320000      -0.01150000
H        0.07610000      -6.36770000      -0.07990000
