23
Properties=species:S:1:pos:R:3 gdb_122149=T pbc="F F F"
C       -0.19510000       1.36230000       0.02950000
O        0.00780000      -0.02960000       0.03840000
C        0.60860000      -0.50460000      -1.14660000
C        0.78680000      -2.01330000      -1.01880000
C        1.45970000      -2.66090000      -2.24260000
C        2.98620000      -2.44360000      -2.23670000
O        3.60390000      -2.72180000      -3.47400000
C        1.11380000      -4.15080000      -2.28340000
O        1.71970000      -4.74520000      -3.43430000
H        0.75320000       1.91430000      -0.07160000
H       -0.85980000       1.67470000      -0.79200000
H       -0.66010000       1.63250000       0.98080000
H       -0.02480000      -0.26980000      -2.02020000
H        1.57630000      -0.00160000      -1.31060000
H        1.37020000      -2.22160000      -0.11300000
H       -0.20440000      -2.45240000      -0.85380000
H        1.06890000      -2.20350000      -3.16190000
H        3.21410000      -1.39670000      -2.00900000
H        3.42050000      -3.04650000      -1.41710000
H        3.27250000      -3.58760000      -3.74740000
H        1.47810000      -4.63420000      -1.36310000
H        0.02210000      -4.28170000      -2.31900000
H        1.64230000      -5.70090000      -3.36620000
