16
Properties=species:S:1:pos:R:3 gdb_79514=T pbc="F F F"
C       -0.01170000       1.44100000      -0.04160000
N       -0.00950000       0.00020000       0.01690000
C       -1.14190000      -0.90030000      -0.03900000
C       -0.81900000      -2.16070000       0.82170000
O       -1.54860000      -3.02320000      -0.11130000
C       -0.79550000      -2.10810000      -0.97050000
C        0.47660000      -2.20430000      -0.05780000
C        1.10740000      -0.80930000      -0.01450000
O        2.26870000      -0.47210000      -0.01680000
H        1.03150000       1.76380000      -0.01640000
H       -0.47370000       1.81410000      -0.96410000
H       -0.53830000       1.88040000       0.81360000
H       -2.13240000      -0.45220000      -0.03640000
H       -0.93240000      -2.33720000       1.89180000
H       -0.88000000      -2.22280000      -2.05170000
H        1.11720000      -3.08090000      -0.07520000
