17
Properties=species:S:1:pos:R:3 gdb_85646=T pbc="F F F"
C        0.85270000       1.28940000      -0.26350000
C        0.04840000       0.01880000      -0.02090000
C        0.16350000      -1.04690000      -1.13010000
C        1.31440000      -1.94980000      -0.63130000
C        2.62070000      -1.55780000      -1.16120000
N        3.63880000      -1.23270000      -1.60120000
C        1.25070000      -1.75680000       0.88880000
N        1.78200000      -2.53630000       1.72170000
O        0.52410000      -0.64700000       1.17490000
H        1.89900000       1.06390000      -0.48910000
H        0.43000000       1.84320000      -1.10790000
H        0.81880000       1.93110000       0.62070000
H       -0.99740000       0.27160000       0.17460000
H       -0.75300000      -1.63950000      -1.18380000
H        0.35220000      -0.61250000      -2.11210000
H        1.15700000      -3.00490000      -0.86380000
H        1.61690000      -2.21860000       2.67800000
