21
Properties=species:S:1:pos:R:3 gdb_39572=T pbc="F F F"
C       -0.01820000       1.53750000      -0.00530000
C        1.35800000       2.15420000      -0.03760000
C        2.48010000       1.44510000      -0.13890000
C        2.45120000      -0.07240000      -0.20220000
C        1.13750000      -0.52890000      -0.86220000
C       -0.03130000      -0.01170000      -0.00830000
C        0.03840000      -0.65390000       1.40000000
C        1.43640000      -0.89260000       1.91360000
C        2.53410000      -0.64830000       1.20100000
H       -0.57210000       1.91640000       0.86420000
H       -0.57930000       1.90160000      -0.87910000
H        1.40210000       3.24010000       0.01010000
H        3.44840000       1.93830000      -0.14440000
H        3.30700000      -0.42560000      -0.78860000
H        1.07250000      -0.13220000      -1.88140000
H        1.11080000      -1.62230000      -0.92690000
H       -0.97920000      -0.32540000      -0.45920000
H       -0.51980000      -0.04100000       2.12060000
H       -0.49020000      -1.61890000       1.37980000
H        1.51870000      -1.30190000       2.91810000
H        3.51950000      -0.82550000       1.62340000
