15
Properties=species:S:1:pos:R:3 gdb_130141=T pbc="F F F"
N       -0.03720000       1.38780000       0.10130000
C        0.02960000      -0.00850000       0.02150000
N       -1.04880000      -0.78610000       0.05600000
N       -0.56920000      -2.04240000       0.03730000
C        0.80200000      -2.09070000      -0.02030000
C        1.54660000      -3.28200000      -0.04380000
C        2.20330000      -4.29380000      -0.05980000
C        1.22490000      -0.76570000      -0.02660000
N        2.52020000      -0.24590000      -0.12200000
H        0.50230000       1.83380000      -0.63310000
H       -0.99840000       1.70450000       0.05360000
H       -1.20350000      -2.82080000       0.03640000
H        2.77700000      -5.18690000      -0.07880000
H        3.22980000      -0.95490000       0.01750000
H        2.66970000       0.51600000       0.53070000
