20
Properties=species:S:1:pos:R:3 gdb_89248=T pbc="F F F"
C       -0.00900000       1.54050000      -0.01140000
C       -0.00670000       0.02880000       0.02550000
C       -1.33510000      -0.73210000       0.30720000
C       -0.64090000      -1.53250000       1.46580000
O       -0.64710000      -2.92930000       1.40660000
C        0.70320000      -0.77460000       1.17290000
C        1.65340000      -1.38250000       0.12290000
N        0.82190000      -2.12030000      -0.86800000
C        0.96780000      -0.64740000      -0.97770000
H        1.01120000       1.94170000      -0.02980000
H       -0.52890000       1.91400000      -0.90240000
H       -0.51550000       1.95440000       0.86690000
H       -2.14430000      -0.07860000       0.64580000
H       -1.70070000      -1.36080000      -0.50690000
H       -1.04190000      -1.26180000       2.44680000
H       -0.30540000      -3.13920000       0.52380000
H        1.20030000      -0.26310000       1.99830000
H        2.69530000      -1.64950000       0.25110000
H        1.45660000      -2.53940000      -1.54570000
H        1.36170000      -0.21570000      -1.89150000
