14
Properties=species:S:1:pos:R:3 gdb_20426=T pbc="F F F"
C       -0.19710000       1.25890000      -0.31070000
C        1.22120000       1.04030000       0.09940000
N        0.25830000      -0.05060000       0.14360000
C       -0.16960000      -0.53020000       1.37420000
N        0.66610000      -0.80210000       2.36980000
N       -0.18030000      -1.32080000       3.30150000
C       -1.44200000      -1.32510000       2.83760000
N       -1.48140000      -0.83060000       1.61610000
H       -0.83550000       1.82750000       0.36010000
H       -0.46480000       1.31550000      -1.36110000
H        1.99980000       0.94100000      -0.65060000
H        1.54350000       1.45650000       1.04980000
H        0.18170000      -1.63380000       4.18640000
H       -2.28310000      -1.68880000       3.40890000
