21
Properties=species:S:1:pos:R:3 gdb_83583=T pbc="F F F"
C       -0.19050000       1.53550000       0.06570000
C        0.06760000       0.03320000       0.00500000
C        0.86740000      -0.52270000      -1.18770000
C        2.20520000       0.21800000      -1.32390000
C        3.00530000       0.06420000      -0.01870000
O        2.20370000       0.19160000       1.15660000
C        0.97940000      -0.53770000       1.10960000
C        1.15210000      -1.97670000       0.60810000
O        1.10640000      -1.89450000      -0.82430000
H        0.73140000       2.09690000       0.23020000
H       -0.65730000       1.89590000      -0.85720000
H       -0.87040000       1.77150000       0.89100000
H       -0.88960000      -0.50200000       0.03680000
H        0.31130000      -0.52810000      -2.12910000
H        2.78480000      -0.20300000      -2.15180000
H        2.02130000       1.27280000      -1.55430000
H        3.50870000      -0.91250000      -0.02240000
H        3.77930000       0.83160000       0.06820000
H        0.56120000      -0.48400000       2.11740000
H        2.10110000      -2.41950000       0.93080000
H        0.33410000      -2.61490000       0.96770000
