19
Properties=species:S:1:pos:R:3 gdb_101206=T pbc="F F F"
C       -0.31070000       1.69040000      -0.17660000
C       -0.10670000       0.18240000       0.01530000
C       -1.45060000      -0.56760000       0.01300000
O       -2.32720000      -0.12000000       1.03500000
C        0.81880000      -0.37980000      -1.05030000
C        2.32220000      -0.05300000      -0.96980000
C        2.47400000      -1.55790000      -0.74650000
O        3.34810000      -2.34180000      -0.56720000
O        1.12680000      -1.80760000      -0.82450000
H        0.62300000       2.24810000      -0.05530000
H       -0.70660000       1.90780000      -1.17580000
H       -1.03370000       2.05860000       0.55420000
H        0.37160000       0.00600000       0.99090000
H       -1.97450000      -0.37750000      -0.93170000
H       -1.27120000      -1.64860000       0.07960000
H       -1.98700000      -0.43910000       1.87690000
H        0.38800000      -0.26770000      -2.05070000
H        2.79620000       0.31620000      -1.88020000
H        2.63310000       0.55830000      -0.12020000
