18
Properties=species:S:1:pos:R:3 gdb_98974=T pbc="F F F"
C        0.65140000       0.06510000       0.85990000
C       -0.12800000       0.37500000      -0.42870000
C        0.66590000       0.10150000      -1.67390000
N        1.04500000       0.97920000      -2.48550000
O        0.90240000      -1.30020000      -1.74710000
C        1.60800000      -1.89350000      -2.72800000
O        2.13010000      -1.34950000      -3.67180000
C        1.68530000      -3.39460000      -2.51610000
O        2.40930000      -4.01110000      -3.53900000
H        0.94480000      -0.98700000       0.90030000
H        1.55610000       0.67670000       0.92490000
H        0.03350000       0.27950000       1.73600000
H       -1.04210000      -0.22970000      -0.45890000
H       -0.41620000       1.42700000      -0.46440000
H        1.57760000       0.58870000      -3.26030000
H        2.14350000      -3.57390000      -1.53130000
H        0.65720000      -3.78300000      -2.45860000
H        2.69260000      -3.30160000      -4.13380000
