16
Properties=species:S:1:pos:R:3 gdb_133838=T pbc="F F F"
C        1.21120000       0.37140000      -0.38340000
C        2.65240000       0.22380000      -0.03270000
C        3.41620000       0.50780000       1.17690000
N        3.68490000       1.33240000      -0.06960000
C        4.70010000       0.39370000      -0.76440000
C        5.58020000      -0.38940000       0.21930000
C        4.46140000      -0.58480000       1.21100000
C        4.61930000      -1.64130000       0.21520000
C        3.74010000      -0.76060000      -0.58080000
H        0.80950000       1.28820000       0.05780000
H        0.63040000      -0.47680000      -0.00560000
H        1.07310000       0.42260000      -1.46840000
H        3.10000000       1.05320000       2.05620000
H        5.00730000       0.76950000      -1.74090000
H        6.63780000      -0.34680000       0.46650000
H        4.70800000      -2.71570000       0.32130000
