20
Properties=species:S:1:pos:R:3 gdb_55865=T pbc="F F F"
C       -0.40890000       1.22950000       0.63820000
C        0.13610000      -0.07370000       0.08840000
N       -0.93800000      -1.00050000      -0.22050000
H       -0.57300000      -1.85100000      -0.63870000
H       -0.15250000      -1.07920000       2.26220000
H       -1.57200000      -0.59180000      -0.90320000
C        1.42940000      -0.04210000      -0.69870000
C        1.38320000      -0.70930000       0.66670000
C        2.08550000      -0.17630000       1.89270000
C        1.43390000      -0.55920000       3.22750000
O        0.16280000      -1.02110000       3.17620000
O        1.99760000      -0.44480000       4.28020000
H        0.38700000       1.94060000       0.86830000
H       -1.06040000       1.70380000      -0.10530000
H       -1.00120000       1.06480000       1.54370000
H        1.52900000      -0.68900000      -1.56460000
H        1.95660000       0.90320000      -0.78650000
H        1.37790000      -1.79800000       0.62010000
H        3.12290000      -0.52060000       1.94330000
H        2.13700000       0.91790000       1.87630000
