17
Properties=species:S:1:pos:R:3 gdb_49250=T pbc="F F F"
O       -0.09430000      -0.01440000       0.22550000
C       -0.00880000       1.17950000       0.05560000
C        1.26260000       1.93300000      -0.06100000
C        1.18420000       3.28500000      -0.09650000
C        2.39830000       4.16280000      -0.01320000
C        3.21270000       3.94100000      -1.26600000
C        3.80230000       2.76060000      -1.53050000
C        3.61870000       1.53950000      -0.77870000
C        2.49240000       1.16960000      -0.11750000
H       -0.91940000       1.81760000      -0.00690000
H        0.20310000       3.75060000      -0.17110000
H        2.12030000       5.21290000       0.09620000
H        2.99210000       3.87520000       0.86600000
H        3.32810000       4.77100000      -1.95680000
H        4.46410000       2.69480000      -2.39160000
H        4.41400000       0.80150000      -0.85620000
H        2.43010000       0.16310000       0.28520000
