19
Properties=species:S:1:pos:R:3 gdb_48153=T pbc="F F F"
N       -0.12040000       1.48140000      -0.04840000
C        0.01830000       0.21450000       0.05790000
N       -1.02800000      -0.66540000       0.08640000
C       -2.40030000      -0.27040000      -0.09780000
C       -3.09750000      -0.45220000      -1.48010000
C       -4.38440000      -0.85660000      -0.71100000
C       -3.50200000      -1.15810000       0.53210000
C        1.37180000      -0.45060000       0.19820000
O        2.40230000       0.16790000       0.21600000
H        0.80600000       1.90840000       0.00480000
H       -0.81420000      -1.64760000       0.00700000
H       -2.47770000       0.76680000       0.23230000
H       -3.13310000       0.41230000      -2.14570000
H       -2.67150000      -1.30170000      -2.02410000
H       -5.04150000       0.00010000      -0.54050000
H       -4.97960000      -1.67650000      -1.11650000
H       -3.19500000      -2.21030000       0.55260000
H       -3.87270000      -0.88500000       1.52250000
H        1.36210000      -1.56200000       0.28570000
