17
Properties=species:S:1:pos:R:3 gdb_77492=T pbc="F F F"
C       -0.12090000       1.55310000      -0.01840000
C        0.09790000       0.04820000       0.01140000
C        1.33940000      -0.60300000      -0.74250000
O        1.64470000      -0.55840000      -2.07830000
C        2.24970000      -0.08670000       0.41720000
C        0.94870000      -0.62300000       1.14610000
O        0.63150000      -0.59410000       2.47890000
C        1.07760000      -1.80370000       0.17370000
O        1.01820000      -2.99750000       0.14130000
H        0.78160000       2.13790000       0.16900000
H       -0.51010000       1.85000000      -0.99760000
H       -0.86150000       1.83650000       0.73600000
H       -0.84970000      -0.46740000      -0.17780000
H        1.33900000      -1.37660000      -2.48670000
H        3.18260000      -0.62690000       0.58990000
H        2.39480000       0.99030000       0.46000000
H        0.96230000      -1.40020000       2.89140000
