17
Properties=species:S:1:pos:R:3 gdb_36823=T pbc="F F F"
N       -0.11880000      -1.11340000      -0.00400000
C       -0.05640000       0.04010000       0.00200000
C        0.04750000       1.49560000       0.00930000
C        1.50680000       1.96520000      -0.00270000
O        1.47980000       3.37470000       0.00570000
C        2.76300000       3.95840000      -0.00380000
C        2.55710000       5.47750000       0.00730000
C        3.82550000       6.19920000      -0.00130000
N        4.83910000       6.75310000      -0.00820000
H       -0.47230000       1.90220000      -0.86440000
H       -0.45460000       1.89200000       0.89790000
H        2.03910000       1.57470000       0.87780000
H        2.02120000       1.58500000      -0.89820000
H        3.34540000       3.64730000       0.87670000
H        3.32750000       3.65780000      -0.89940000
H        1.96560000       5.77050000      -0.86630000
H        1.98340000       5.76010000       0.89600000
