21
Properties=species:S:1:pos:R:3 gdb_87708=T pbc="F F F"
C       -0.11440000       1.46030000      -0.04940000
C        0.04700000      -0.04130000       0.02680000
C        1.40150000      -0.67990000      -0.18840000
C        0.76920000      -0.70800000       1.16860000
C        1.19570000      -0.05950000       2.49520000
C        0.22300000      -1.02270000       3.22310000
O       -1.06790000      -0.47230000       3.47020000
C        0.19490000      -1.91620000       1.94070000
O       -1.05010000      -2.43950000       1.58180000
H        0.76760000       1.97780000       0.34200000
H       -0.25580000       1.78850000      -1.08490000
H       -0.98390000       1.80800000       0.52300000
H       -0.79990000      -0.61370000      -0.34510000
H        1.45610000      -1.61010000      -0.74610000
H        2.24900000      -0.01690000      -0.34110000
H        2.24120000      -0.25340000       2.75420000
H        1.00070000       1.00880000       2.63780000
H        0.54930000      -1.48220000       4.15850000
H       -1.18620000       0.29110000       2.89480000
H        0.91600000      -2.74040000       1.99370000
H       -1.69620000      -1.89970000       2.06200000
