15
Properties=species:S:1:pos:R:3 gdb_42823=T pbc="F F F"
O        0.08260000      -0.01320000       0.01470000
C        0.02790000       1.17000000       0.09460000
C       -1.04130000       2.29100000       0.05590000
C       -0.81220000       3.05190000       1.37590000
C        0.73170000       3.10030000       1.30860000
C        1.61370000       4.08810000       1.92390000
O        1.51910000       2.74650000       2.43360000
C        0.97500000       2.39430000      -0.02380000
O       -0.09650000       2.95960000      -0.85060000
H       -2.04520000       2.16910000      -0.34400000
H       -1.27240000       4.04220000       1.34310000
H       -1.16080000       2.51650000       2.26290000
H        2.56220000       4.34240000       1.45320000
H        1.18930000       4.85900000       2.56570000
H        1.96440000       2.38680000      -0.47410000
