19
Properties=species:S:1:pos:R:3 gdb_101061=T pbc="F F F"
C        0.14490000       1.50480000       0.20800000
C        0.17210000      -0.02390000       0.11730000
C        0.60690000      -0.53950000      -1.26190000
O        1.92980000      -0.13540000      -1.59160000
C        0.61370000      -2.07170000      -1.32650000
C        1.51020000      -2.77480000      -2.29210000
N        1.80390000      -2.80800000      -0.85500000
C       -0.65990000      -2.67990000      -1.00200000
N       -1.69750000      -3.13470000      -0.77080000
H        1.14260000       1.94290000       0.08390000
H       -0.51490000       1.93930000      -0.55150000
H       -0.21930000       1.82820000       1.18680000
H        0.84990000      -0.43540000       0.87460000
H       -0.82530000      -0.42090000       0.33360000
H       -0.10260000      -0.17230000      -2.02140000
H        1.97140000       0.82410000      -1.55050000
H        1.18770000      -3.72020000      -2.71620000
H        2.11700000      -2.14290000      -2.93120000
H        2.51880000      -2.10890000      -0.65740000
