21
Properties=species:S:1:pos:R:3 gdb_52614=T pbc="F F F"
C        0.06420000       1.49340000      -0.09050000
C        0.08800000       0.03710000      -0.07410000
C        0.10340000      -1.16700000      -0.05060000
C        0.09810000      -2.63340000      -0.06090000
C       -1.34550000      -3.14660000       0.15480000
C        0.64870000      -3.14940000      -1.41110000
C        0.97410000      -3.20420000       1.05870000
C        2.06890000      -2.47730000       1.70790000
O        0.81170000      -2.67260000       2.36770000
H        0.97020000       1.90430000      -0.54990000
H       -0.79380000       1.86960000      -0.65860000
H       -0.00750000       1.90020000       0.92420000
H       -2.00760000      -2.77210000      -0.63050000
H       -1.36680000      -4.24170000       0.13220000
H       -1.72670000      -2.81080000       1.12190000
H        1.66810000      -2.79210000      -1.58090000
H        0.65730000      -4.24480000      -1.42760000
H        0.02220000      -2.80000000      -2.23590000
H        1.03560000      -4.29500000       1.02820000
H        2.90690000      -3.03040000       2.13000000
H        2.27500000      -1.45230000       1.40930000
