15
Properties=species:S:1:pos:R:3 gdb_69021=T pbc="F F F"
N       -0.12680000       1.45140000      -0.18630000
C       -0.03580000       0.06170000      -0.01390000
C       -0.31980000      -0.88470000      -1.16260000
C       -1.17880000      -1.01110000       0.06870000
N       -0.46340000      -1.66680000       1.16850000
C        0.60950000      -0.72550000       1.10220000
N        1.66910000      -0.53230000       1.75370000
C       -2.59000000      -0.82960000       0.09950000
N       -3.73810000      -0.68370000       0.11460000
H       -0.05040000       1.94420000       0.69610000
H        0.58540000       1.80300000      -0.81590000
H       -0.79340000      -0.40000000      -2.01080000
H        0.36880000      -1.68810000      -1.40900000
H       -0.26350000      -2.66010000       1.09720000
H        1.81750000      -1.25020000       2.46530000
