18
Properties=species:S:1:pos:R:3 gdb_105753=T pbc="F F F"
C        0.06250000       1.52650000      -0.08100000
C        0.07130000       0.00240000       0.04210000
C        0.70180000      -0.51000000       1.34720000
C        0.89180000      -2.06500000       1.36380000
O        2.26410000      -2.22620000       1.06220000
C        2.88360000      -1.13220000       1.68260000
O        2.04040000      -0.01680000       1.45040000
C       -0.08060000      -0.06910000       2.52060000
N       -0.71080000       0.26050000       3.43140000
H        1.07790000       1.92430000      -0.01280000
H       -0.36180000       1.82800000      -1.04250000
H       -0.53770000       1.98470000       0.71120000
H       -0.94850000      -0.39480000      -0.02300000
H        0.65080000      -0.44570000      -0.77290000
H        0.64610000      -2.47930000       2.35060000
H        0.30000000      -2.56730000       0.59710000
H        2.99970000      -1.30350000       2.76690000
H        3.85360000      -0.95000000       1.21460000
