17
Properties=species:S:1:pos:R:3 gdb_108290=T pbc="F F F"
O       -0.15500000       1.51160000      -0.25340000
C       -0.00350000       0.10390000      -0.24890000
C       -1.29610000      -0.55770000       0.15640000
C       -1.80150000      -0.47780000       1.62000000
C       -2.17680000      -1.97160000       1.51770000
O       -2.65520000      -2.76200000       2.27630000
C       -1.64370000      -2.08310000       0.07860000
C       -2.68080000      -1.63190000      -0.97580000
O       -2.36020000      -0.23580000      -0.78000000
H       -0.90020000       1.70170000      -0.83630000
H        0.30750000      -0.27380000      -1.23560000
H        0.79100000      -0.13060000       0.46750000
H       -1.00700000      -0.31180000       2.35590000
H       -2.61740000       0.22260000       1.80990000
H       -0.96370000      -2.89700000      -0.16980000
H       -2.43710000      -1.95880000      -1.99310000
H       -3.73240000      -1.85560000      -0.76640000
