25
Properties=species:S:1:pos:R:3 gdb_96331=T pbc="F F F"
C        0.00930000       1.58950000      -0.00370000
C       -0.01980000       0.05400000      -0.01850000
C        0.68810000      -0.48460000      -1.27860000
C        0.23950000      -1.88690000      -1.72310000
O       -0.10260000      -2.77640000      -0.67780000
C        0.83480000      -2.89780000       0.37730000
C        0.47030000      -1.99260000       1.56280000
C        1.27750000      -2.38720000       2.80690000
C        0.63120000      -0.49110000       1.26970000
H        1.04040000       1.96350000       0.00620000
H       -0.48480000       2.00500000      -0.88820000
H       -0.49560000       1.98930000       0.88190000
H       -1.06970000      -0.26780000      -0.04310000
H        0.51480000       0.19050000      -2.12600000
H        1.77180000      -0.46680000      -1.10500000
H       -0.67370000      -1.80950000      -2.32320000
H        1.01600000      -2.33100000      -2.36850000
H        0.80250000      -3.94530000       0.70160000
H        1.86120000      -2.70070000       0.02880000
H       -0.59250000      -2.18750000       1.76210000
H        2.35340000      -2.25590000       2.63900000
H        1.00250000      -1.77000000       3.66810000
H        1.10860000      -3.43460000       3.07820000
H        1.70450000      -0.24710000       1.23670000
H        0.22850000       0.06190000       2.12820000
