20
Properties=species:S:1:pos:R:3 gdb_87178=T pbc="F F F"
C       -0.09380000       1.60960000      -0.75200000
C        0.01750000       0.18630000      -0.22540000
C       -1.25410000      -0.62950000      -0.37780000
C       -2.44850000      -0.14560000       0.45400000
O       -2.16510000       0.51660000       1.60050000
O       -3.58730000      -0.35810000       0.14270000
C        1.36280000      -0.50830000      -0.37290000
C        0.86280000      -0.10470000       0.99800000
N        1.37030000       0.96400000       1.82580000
H        1.67650000       1.75240000       1.26630000
H       -1.21030000       0.63460000       1.71160000
H        2.18020000       0.64960000       2.35240000
H        0.85000000       2.15700000      -0.67760000
H       -0.37090000       1.59410000      -1.81160000
H       -0.85870000       2.18350000      -0.21810000
H       -1.59470000      -0.66160000      -1.41720000
H       -1.07260000      -1.67030000      -0.08130000
H        1.38980000      -1.56270000      -0.62940000
H        2.16360000       0.07850000      -0.81260000
H        0.51200000      -0.93160000       1.61240000
