22
Properties=species:S:1:pos:R:3 gdb_90092=T pbc="F F F"
C       -0.09810000       1.63800000      -0.19390000
C       -0.01020000       0.12040000      -0.02970000
C        0.92800000      -0.70620000      -1.00680000
C        1.79930000      -0.93190000       0.24260000
C        2.35860000      -1.81920000       1.39470000
C        1.92150000      -0.40730000       1.98360000
C        2.64050000       0.28310000       0.80980000
C        4.15710000       0.37820000       0.69920000
N        0.65150000      -0.62420000       1.14700000
H        0.84350000       2.11720000      -0.46910000
H       -0.82310000       1.87100000      -0.98290000
H       -0.46100000       2.10060000       0.73000000
H       -1.03700000      -0.25550000      -0.03680000
H        0.43700000      -1.60310000      -1.39010000
H        1.39520000      -0.15990000      -1.83000000
H        1.71020000      -2.64770000       1.67790000
H        3.41750000      -2.07610000       1.43630000
H        1.89830000      -0.12420000       3.04020000
H        2.20650000       1.25260000       0.57500000
H        4.67470000      -0.56090000       0.90670000
H        4.44550000       0.69750000      -0.30880000
H        4.54350000       1.12910000       1.39840000
