17
Properties=species:S:1:pos:R:3 gdb_57002=T pbc="F F F"
O        0.04940000       1.48000000      -0.22370000
C        0.02870000       0.08180000      -0.07880000
C        0.68170000      -0.58020000      -1.23580000
N        1.21510000      -1.10410000      -2.11720000
C        0.72460000      -0.35770000       1.23190000
N        1.86000000       0.55680000       1.59040000
C        1.31890000       0.65620000       2.97270000
C        0.00860000       1.37030000       2.93680000
C        0.05790000      -0.10370000       2.59110000
H        0.91280000       1.74580000       0.14080000
H       -1.01950000      -0.23910000      -0.05880000
H        1.03890000      -1.40230000       1.15310000
H        2.75040000       0.07320000       1.55690000
H        1.96250000       0.58260000       3.84000000
H       -0.42860000       1.56750000       3.91060000
H       -0.19510000       2.11780000       2.17950000
H       -0.50950000      -0.84740000       3.13440000
