19
Properties=species:S:1:pos:R:3 gdb_92153=T pbc="F F F"
C        0.01800000       1.44430000      -0.03470000
N       -0.02900000      -0.00390000       0.05040000
C       -1.39370000      -0.56460000       0.00670000
C       -1.29460000      -1.80200000       0.89370000
N       -0.19520000      -2.68490000       0.33820000
C        0.72630000      -2.08890000       1.32900000
C        0.57520000      -0.56250000       1.24920000
C       -0.37320000      -1.35290000       2.08290000
O       -0.69530000      -1.08920000       3.39700000
H        1.05780000       1.78550000      -0.01420000
H       -0.41620000       1.76690000      -0.98680000
H       -0.53130000       1.95740000       0.77790000
H       -2.13770000       0.13480000       0.43010000
H       -1.68410000      -0.81000000      -1.01990000
H       -2.23740000      -2.30840000       1.09980000
H       -0.38530000      -3.64160000       0.63160000
H        1.65090000      -2.56860000       1.63110000
H        1.35880000       0.01470000       1.72580000
H       -0.94390000      -1.91690000       3.82500000
