19
Properties=species:S:1:pos:R:3 gdb_71823=T pbc="F F F"
O       -0.00160000       1.41000000       0.01420000
C        0.02630000       0.00920000       0.00200000
C        0.47090000      -0.68010000      -1.31850000
C       -0.80030000      -1.61390000      -1.25310000
C       -0.53300000      -2.98890000      -0.70140000
C       -0.55400000      -3.00090000       0.63350000
C       -0.83900000      -1.63590000       1.20120000
C        0.42930000      -0.70380000       1.32340000
C       -1.30770000      -0.79200000      -0.02620000
H        0.90830000       1.72840000       0.02940000
H        0.40750000       0.03410000      -2.14430000
H        1.44500000      -1.17740000      -1.33720000
H       -1.40430000      -1.60190000      -2.16250000
H       -0.28560000      -3.83600000      -1.33250000
H       -0.32650000      -3.85920000       1.25680000
H       -1.47130000      -1.64010000       2.09120000
H        1.40240000      -1.20160000       1.36390000
H        0.33960000      -0.00450000       2.15940000
H       -2.29350000      -0.33050000      -0.03760000
