19
Properties=species:S:1:pos:R:3 gdb_93932=T pbc="F F F"
C       -0.00910000       1.49660000       0.08610000
C        0.13240000      -0.01200000       0.07280000
C        0.60330000      -0.62570000      -1.25290000
O        1.36190000      -1.77090000      -0.86450000
C        1.61490000      -1.65750000       0.54100000
O        1.19570000      -0.40060000       0.95480000
C        0.83530000      -2.82020000       1.20760000
C        1.40090000      -4.19890000       0.94820000
O       -0.16510000      -2.61490000       1.85010000
H        0.92970000       1.97400000      -0.21010000
H       -0.79690000       1.80970000      -0.60640000
H       -0.27670000       1.84640000       1.08630000
H       -0.79690000      -0.49290000       0.40180000
H       -0.22160000      -0.94350000      -1.89710000
H        1.24450000       0.07410000      -1.80650000
H        2.69350000      -1.74840000       0.73210000
H        2.38860000      -4.29070000       1.41580000
H        0.73430000      -4.96130000       1.35250000
H        1.54080000      -4.34460000      -0.12770000
