16
Properties=species:S:1:pos:R:3 gdb_67922=T pbc="F F F"
C       -0.09930000       1.48830000       0.06590000
C        0.04410000       0.00540000       0.08710000
O       -1.17070000      -0.78640000      -0.01630000
C       -0.68000000      -1.67330000       0.94640000
N       -1.23560000      -2.63400000       1.52360000
C        0.64420000      -0.99410000       1.05080000
C        1.21100000      -0.82160000      -0.38120000
C        1.13200000      -1.82990000      -1.39730000
C        1.07870000      -2.67040000      -2.25480000
H        0.86840000       1.96640000       0.24030000
H       -0.47420000       1.82160000      -0.90740000
H       -0.80010000       1.81980000       0.83760000
H       -2.19100000      -2.76500000       1.18700000
H        1.25990000      -0.88640000       1.93170000
H        2.14780000      -0.26720000      -0.35790000
H        1.02280000      -3.41610000      -3.00860000
