18
Properties=species:S:1:pos:R:3 gdb_91862=T pbc="F F F"
C        0.15550000       1.38660000       0.14000000
N       -0.00410000      -0.04960000       0.13400000
C       -1.37450000      -0.53360000       0.25880000
C       -1.21420000      -1.98330000       0.66870000
O       -0.24460000      -2.71490000      -0.06170000
C        0.16720000      -2.13130000       1.18810000
C        0.84370000      -0.78350000       1.07170000
C        0.49710000      -3.10040000       2.26330000
O        1.20620000      -2.84800000       3.20520000
H        1.20320000       1.64320000      -0.04700000
H       -0.44560000       1.83040000      -0.66040000
H       -0.14520000       1.85980000       1.09490000
H       -1.95850000      -0.02350000       1.05080000
H       -1.91760000      -0.40930000      -0.68600000
H       -2.06100000      -2.55100000       1.04600000
H        1.87090000      -0.84650000       0.69540000
H        0.88470000      -0.34210000       2.08410000
H        0.02500000      -4.09650000       2.11800000
