20
Properties=species:S:1:pos:R:3 gdb_72810=T pbc="F F F"
C       -0.36110000       1.47000000       0.12830000
C        0.07620000       0.02160000      -0.02260000
C       -1.05470000      -1.03200000       0.22340000
C       -0.39530000      -1.41050000       1.57810000
C        0.87470000      -0.62320000       1.15210000
C        1.90960000      -1.47880000       0.45790000
N        2.71750000      -2.25960000       1.03450000
O        1.83150000      -1.31800000      -0.90100000
C        0.95360000      -0.23570000      -1.24870000
H        0.50040000       2.14590000       0.16650000
H       -0.99450000       1.77900000      -0.71160000
H       -0.94120000       1.61390000       1.04550000
H       -2.07100000      -0.63310000       0.26710000
H       -1.03500000      -1.84900000      -0.50320000
H       -0.89200000      -0.94410000       2.43200000
H       -0.25060000      -2.47040000       1.79280000
H        1.33910000       0.01960000       1.90200000
H        3.31350000      -2.72820000       0.34960000
H        0.38650000      -0.53540000      -2.13550000
H        1.56220000       0.64230000      -1.50380000
