17
Properties=species:S:1:pos:R:3 gdb_33864=T pbc="F F F"
N       -0.00010000      -1.12030000      -0.08500000
C       -0.00920000       0.03660000      -0.04660000
C       -0.02500000       1.46930000       0.00510000
C        0.43250000       2.25090000      -1.21810000
C        1.26450000       2.29720000       0.03040000
N        1.16000000       3.35660000       1.02150000
C        0.22170000       4.45680000       0.75050000
C       -0.20580000       3.31190000       1.59210000
C       -0.99960000       2.15550000       0.97850000
H        0.83060000       1.66710000      -2.04030000
H       -0.16360000       3.09990000      -1.52810000
H        2.22820000       1.80230000       0.02060000
H        0.49640000       5.39680000       1.22090000
H       -0.20350000       4.57120000      -0.24140000
H       -0.27720000       3.44310000       2.66840000
H       -1.91610000       2.48530000       0.47950000
H       -1.29100000       1.44790000       1.75810000
