20
Properties=species:S:1:pos:R:3 gdb_76427=T pbc="F F F"
C       -0.04800000       1.49550000      -0.21510000
C        0.06730000       0.00900000       0.04580000
C        1.41390000      -0.69280000       0.00540000
O        2.58210000       0.05780000      -0.14410000
C        0.68940000      -0.55340000       1.31970000
C        1.24110000       0.37190000       2.38670000
C        0.02350000      -1.81680000       1.86730000
C        0.94300000      -2.67220000       2.62190000
N        1.67660000      -3.33920000       3.21550000
H        0.88240000       2.01820000       0.01520000
H       -0.28050000       1.68070000      -1.26970000
H       -0.84810000       1.94710000       0.38050000
H       -0.76390000      -0.57180000      -0.34920000
H        1.45840000      -1.68760000      -0.43980000
H        2.66060000       0.31020000      -1.07020000
H        1.84530000       1.16700000       1.95130000
H        0.43070000       0.82540000       2.96890000
H        1.88180000      -0.18480000       3.07830000
H       -0.81280000      -1.54640000       2.52450000
H       -0.40130000      -2.41220000       1.05160000
