22
Properties=species:S:1:pos:R:3 gdb_7393=T pbc="F F F"
C        0.06040000       1.60800000      -0.07790000
C        0.04910000       0.07870000      -0.01460000
C       -1.36400000      -0.51130000      -0.02920000
C       -1.37930000      -2.04160000       0.08760000
O       -0.71790000      -2.48930000       1.26470000
C       -2.80830000      -2.61290000       0.05430000
C       -2.82430000      -4.13460000      -0.05840000
O       -3.40910000      -2.17490000       1.27950000
H        1.08210000       2.00070000      -0.06370000
H       -0.42350000       1.97400000      -0.99080000
H       -0.47480000       2.04300000       0.77370000
H        0.61970000      -0.32800000      -0.86080000
H        0.56150000      -0.26530000       0.88990000
H       -1.95590000      -0.09250000       0.79470000
H       -1.87860000      -0.22390000      -0.95700000
H       -0.81780000      -2.47080000      -0.75230000
H       -1.35050000      -2.33870000       1.97980000
H       -3.34610000      -2.17330000      -0.80050000
H       -2.21640000      -4.57660000       0.73510000
H       -3.84700000      -4.52330000       0.01640000
H       -2.42120000      -4.45530000      -1.02430000
H       -4.20290000      -2.69560000       1.43180000
