16
Properties=species:S:1:pos:R:3 gdb_19187=T pbc="F F F"
O        0.15310000       1.48800000      -0.12110000
C        0.06420000       0.10630000      -0.02680000
C        0.15550000      -0.62330000       1.36890000
C       -1.04200000      -0.02270000       2.09040000
C       -2.01080000      -0.02490000       1.15940000
C       -1.33320000      -0.62710000      -0.06700000
C       -0.58850000      -1.81680000       0.63110000
O        0.16250000      -2.58710000      -0.26920000
H       -0.47130000       1.85100000       0.52180000
H        0.76290000      -0.31190000      -0.75040000
H        1.09480000      -0.75750000       1.90560000
H       -1.08500000       0.28470000       3.12600000
H       -3.04350000       0.28410000       1.23780000
H       -1.90260000      -0.76680000      -0.98460000
H       -1.21480000      -2.43420000       1.28640000
H        0.63800000      -3.25840000       0.23010000
