14
Properties=species:S:1:pos:R:3 gdb_45814=T pbc="F F F"
O        0.03650000       0.02880000      -0.34500000
C        0.01360000       1.16840000      -0.00930000
O       -1.16950000       1.73340000       0.39700000
C       -1.33870000       2.90810000       1.10730000
N       -0.79870000       4.03280000       0.97400000
C        0.18680000       4.27770000      -0.02800000
C        1.64830000       4.32540000       0.35210000
C        1.13470000       3.21710000      -0.51810000
O        1.11530000       1.93920000       0.08470000
H       -2.12870000       2.75590000       1.83840000
H       -0.14460000       5.01820000      -0.75100000
H        2.27900000       5.08810000      -0.08850000
H        1.89240000       4.04840000       1.37140000
H        1.41130000       3.16880000      -1.56730000
