18
Properties=species:S:1:pos:R:3 gdb_50003=T pbc="F F F"
O        0.21510000       0.20710000       0.65010000
C        0.10310000       1.32700000       0.21410000
N        1.05260000       1.97970000      -0.55290000
C        2.48000000       1.87230000      -0.31490000
C        1.77490000       3.18390000      -0.18660000
C        1.96420000       4.44640000      -1.05290000
C        1.86480000       5.27820000       0.23690000
C        0.54480000       5.03830000       0.90310000
C        1.63420000       4.00720000       1.07260000
H       -0.81600000       1.93230000       0.33010000
H        2.78530000       1.35730000       0.59330000
H        3.09470000       1.67370000      -1.18930000
H        2.94870000       4.47800000      -1.52540000
H        1.19620000       4.63750000      -1.80820000
H        2.49240000       6.12490000       0.48080000
H        0.34730000       5.63610000       1.78690000
H       -0.33870000       4.81780000       0.30840000
H        2.02740000       3.73870000       2.04560000
