25
Properties=species:S:1:pos:R:3 gdb_118035=T pbc="F F F"
C        0.03440000       1.60520000       0.08470000
C       -0.08740000       0.08060000      -0.00070000
C        0.66180000      -0.50100000      -1.20780000
C        0.69290000      -2.03990000      -1.27440000
C       -0.72340000      -2.63520000      -1.35040000
C        1.55280000      -2.55620000      -2.45990000
C        3.00170000      -2.02760000      -2.46590000
C        1.63650000      -4.07050000      -2.41050000
O        1.32930000      -4.82230000      -3.29890000
H        1.08150000       1.91520000       0.17560000
H       -0.37450000       2.08560000      -0.81120000
H       -0.50660000       2.00080000       0.94990000
H        0.30640000      -0.37020000       0.92040000
H       -1.14770000      -0.19200000      -0.04460000
H        0.21510000      -0.11140000      -2.13420000
H        1.68790000      -0.11760000      -1.18040000
H        1.16670000      -2.40220000      -0.34820000
H       -0.70220000      -3.72700000      -1.42320000
H       -1.31590000      -2.37870000      -0.46890000
H       -1.25420000      -2.26060000      -2.23360000
H        1.06540000      -2.29510000      -3.40690000
H        3.50650000      -2.24360000      -1.51720000
H        3.57940000      -2.49520000      -3.26920000
H        3.03180000      -0.94770000      -2.62490000
H        2.05040000      -4.46230000      -1.44810000
