23
Properties=species:S:1:pos:R:3 gdb_59661=T pbc="F F F"
C        0.00790000       1.56990000      -0.02750000
C       -0.02670000       0.06860000       0.26230000
O        0.34260000      -0.20950000       1.61430000
C       -1.38150000      -0.54720000      -0.06430000
C       -1.81740000      -0.67480000      -1.53660000
O       -2.13690000      -2.06630000      -1.37590000
C       -1.57570000      -2.09650000      -0.02440000
C       -0.30950000      -2.94520000       0.00400000
C       -2.60980000      -2.59290000       0.97490000
H        0.98540000       1.98340000       0.23470000
H       -0.18350000       1.77610000      -1.08580000
H       -0.75660000       2.09660000       0.55760000
H        0.75010000      -0.42240000      -0.33450000
H       -0.28040000       0.25120000       2.18780000
H       -2.14680000      -0.04760000       0.54270000
H       -2.68440000      -0.08250000      -1.85110000
H       -1.00650000      -0.51970000      -2.26410000
H        0.38250000      -2.65110000      -0.78980000
H        0.20270000      -2.84500000       0.96480000
H       -0.56760000      -3.99700000      -0.15420000
H       -2.86520000      -3.63880000       0.77570000
H       -2.21720000      -2.52360000       1.99530000
H       -3.52660000      -1.99970000       0.91070000
