16
Properties=species:S:1:pos:R:3 gdb_14719=T pbc="F F F"
O       -0.02850000       1.44430000       0.01020000
C        0.03660000       0.02850000       0.00180000
C       -1.39210000      -0.49960000       0.01270000
C       -1.43590000      -2.04110000       0.00480000
C       -2.78970000      -2.57250000       0.01490000
C       -3.92210000      -2.99940000       0.02380000
C       -5.19590000      -3.47850000       0.03340000
C       -6.32580000      -3.90510000       0.04140000
H        0.86910000       1.78910000       0.00300000
H        0.56470000      -0.34350000      -0.89230000
H        0.58180000      -0.35330000       0.88140000
H       -1.90830000      -0.11900000       0.89960000
H       -1.92520000      -0.10950000      -0.85980000
H       -0.90660000      -2.42090000      -0.88000000
H       -0.88970000      -2.43040000       0.87500000
H       -7.31960000      -4.27790000       0.04870000
