15
Properties=species:S:1:pos:R:3 gdb_19988=T pbc="F F F"
C        0.04500000      -1.14480000       0.46120000
C        0.09930000       0.03960000       0.26480000
C        0.11160000       1.45240000       0.00560000
O        0.73390000       2.31360000       0.98480000
C        1.34750000       2.21500000      -0.29550000
C        2.71480000       1.60640000      -0.34590000
C        3.74310000       2.09760000       0.60970000
N        3.18930000       0.74010000       0.73250000
H        0.01690000      -2.19220000       0.63630000
H       -0.82480000       1.85350000      -0.38140000
H        1.22040000       3.09930000      -0.92440000
H        3.02420000       1.30310000      -1.34430000
H        4.78520000       2.14770000       0.30800000
H        3.43350000       2.84800000       1.33230000
H        2.48990000       0.73070000       1.47280000
