12
Properties=species:S:1:pos:R:3 gdb_2118=T pbc="F F F"
N       -0.06320000       1.29820000      -0.02730000
C       -0.00930000       0.04140000       0.07150000
O        1.08250000      -0.69590000       0.40350000
C        0.82600000      -2.11610000       0.27810000
C       -0.69500000      -2.28570000       0.23280000
C       -1.19100000      -0.89240000      -0.13880000
O       -2.28440000      -0.57420000      -0.51200000
H        0.84990000       1.71800000       0.16230000
H        1.30510000      -2.46890000      -0.64130000
H        1.30210000      -2.60550000       1.12940000
H       -1.04220000      -3.03710000      -0.47790000
H       -1.10480000      -2.53980000       1.21690000
