17
Properties=species:S:1:pos:R:3 gdb_107524=T pbc="F F F"
C        0.21740000       1.34770000      -0.22090000
O       -0.23140000       0.04560000       0.15100000
C        0.52170000      -0.54450000       1.12720000
C        1.92700000      -1.05870000       0.92830000
C        0.84070000      -1.99880000       1.38180000
N        0.68980000      -1.84330000       2.84960000
C        0.19530000      -0.43650000       2.63780000
C        0.87140000       0.58870000       3.43220000
N        1.40560000       1.42080000       4.03100000
H        1.25700000       1.32230000      -0.57030000
H       -0.43220000       1.68210000      -1.03160000
H        0.14260000       2.05280000       0.61650000
H        2.19470000      -1.15600000      -0.11920000
H        2.73760000      -0.80210000       1.60460000
H        0.55680000      -2.90360000       0.86070000
H       -0.06950000      -2.41590000       3.20540000
H       -0.88690000      -0.34540000       2.77190000
