17
Properties=species:S:1:pos:R:3 gdb_60684=T pbc="F F F"
C        0.16760000       1.49050000      -0.20410000
C       -0.08140000      -0.03220000      -0.00110000
C        0.30360000      -0.37150000       1.43680000
O        1.31080000      -0.96040000       1.73390000
C       -1.58210000      -0.24390000      -0.20590000
O       -2.40250000      -0.05660000       0.65700000
C        0.77040000      -0.82610000      -0.97980000
C        0.36760000      -2.11920000      -1.53790000
O        0.28410000      -0.92110000      -2.32050000
H        1.23090000       1.71490000      -0.07770000
H       -0.13130000       1.78670000      -1.21390000
H       -0.40790000       2.07690000       0.51680000
H       -0.41750000      -0.01150000       2.19700000
H       -1.87060000      -0.53510000      -1.23560000
H        1.83680000      -0.62100000      -0.90130000
H        1.12920000      -2.82930000      -1.85240000
H       -0.58820000      -2.56120000      -1.25810000
