21
Properties=species:S:1:pos:R:3 gdb_103485=T pbc="F F F"
C       -0.12410000       1.76880000      -0.47790000
C       -0.03740000       0.33610000       0.00290000
C       -1.26750000      -0.08960000       0.79990000
O       -1.22090000      -1.41690000       1.30260000
C        0.65200000      -0.74100000      -0.83100000
C        1.59300000      -0.32420000      -1.96190000
C        2.86670000       0.10050000      -1.19720000
O        2.44100000       0.49520000       0.11120000
C        1.28880000      -0.24170000       0.43930000
H        0.84940000       2.14400000      -0.79710000
H       -0.83110000       1.87450000      -1.30890000
H       -0.46910000       2.41940000       0.33430000
H       -1.35560000       0.55910000       1.68000000
H       -2.17200000       0.07010000       0.19130000
H       -1.46270000      -2.01620000       0.59110000
H        0.21140000      -1.73070000      -0.86640000
H        1.79110000      -1.15770000      -2.64110000
H        1.19180000       0.49870000      -2.56160000
H        3.57090000      -0.74220000      -1.12310000
H        3.39100000       0.94890000      -1.64670000
H        1.36240000      -0.84410000       1.33870000
