17
Properties=species:S:1:pos:R:3 gdb_80706=T pbc="F F F"
O       -0.15200000       1.40060000      -0.01330000
C       -0.15130000       0.00040000      -0.03720000
C       -0.42240000      -0.83560000       1.19330000
C       -1.39350000      -0.07750000       2.11160000
C       -2.43690000      -0.03980000       0.95050000
C       -2.99500000       1.25940000       0.42120000
O       -3.36670000       1.38780000      -0.71910000
C       -1.43420000      -0.75810000       0.03660000
O       -1.78300000      -1.73670000      -0.86840000
H        0.63840000       1.69620000       0.45190000
H        0.55850000      -0.45100000      -0.73030000
H        0.23040000      -1.64570000       1.49460000
H       -1.73120000      -0.66420000       2.96680000
H       -1.04170000       0.89700000       2.46170000
H       -3.28080000      -0.70310000       1.17070000
H       -3.06880000       2.09740000       1.15080000
H       -2.14830000      -1.29200000      -1.64360000
