20
Properties=species:S:1:pos:R:3 gdb_113416=T pbc="F F F"
C       -0.00820000       1.52350000      -0.32780000
C       -0.02610000       0.10200000       0.24560000
C       -1.40230000      -0.53110000       0.20870000
C       -1.91210000      -1.21240000      -1.06020000
C       -1.58680000      -2.01420000       0.16130000
C       -0.56140000      -3.14620000       0.34880000
C       -1.67880000      -3.84800000       1.16970000
O       -1.79920000      -4.88260000       1.76730000
N       -2.52950000      -2.78870000       0.95070000
H        0.99880000       1.95060000      -0.29610000
H       -0.34650000       1.53140000      -1.36920000
H       -0.66990000       2.18650000       0.24010000
H        0.67470000      -0.52870000      -0.31590000
H        0.34040000       0.11800000       1.28040000
H       -2.16140000       0.01110000       0.77090000
H       -2.95510000      -1.08310000      -1.33080000
H       -1.23640000      -1.27930000      -1.90840000
H       -0.27110000      -3.68010000      -0.55770000
H        0.32500000      -2.89370000       0.93370000
H       -3.47840000      -2.61440000       1.24730000
