14
Properties=species:S:1:pos:R:3 gdb_21800=T pbc="F F F"
O       -0.29300000       1.03710000       1.13260000
C        0.06570000       1.21780000      -0.00110000
C        1.46290000       1.66420000      -0.40730000
C        1.41290000       2.85740000      -1.31450000
N        1.58350000       2.71630000      -2.62930000
N        1.43780000       3.95990000      -3.12300000
C        1.18060000       4.88610000      -2.16890000
C        1.15130000       4.20640000      -0.97120000
H       -0.62510000       1.06820000      -0.86150000
H        2.04050000       1.85790000       0.50030000
H        1.92880000       0.83520000      -0.95420000
H        1.54070000       4.10520000      -4.11290000
H        1.04410000       5.92820000      -2.41090000
H        0.97260000       4.61800000       0.00890000
