11
Properties=species:S:1:pos:R:3 gdb_123323=T pbc="F F F"
C       -0.03400000      -1.18830000      -0.00370000
C       -0.03410000       0.01340000       0.00310000
C        0.00420000       1.42400000       0.01040000
N       -1.06930000       2.17990000       0.02790000
O       -0.61620000       3.46310000       0.02950000
N        0.74290000       3.52990000       0.01310000
C        1.15980000       2.28490000       0.00090000
C        2.52220000       1.91770000      -0.01800000
C        3.67350000       1.57350000      -0.03410000
H       -0.04160000      -2.25090000      -0.00950000
H        4.69370000       1.27660000      -0.04810000
