16
Properties=species:S:1:pos:R:3 gdb_50407=T pbc="F F F"
O       -0.04250000      -0.04630000      -0.18400000
C        0.00260000       1.16220000      -0.09710000
N        1.14930000       1.90250000      -0.05240000
C        2.43610000       1.22930000      -0.04290000
C        3.35830000       1.80360000       0.98930000
C        3.12870000       2.95860000       1.62610000
C        1.98420000       3.82020000       1.27660000
O        1.75340000       4.87490000       1.82770000
C        1.13530000       3.34530000       0.09140000
H       -0.90000000       1.80070000      -0.04390000
H        2.24040000       0.16990000       0.14820000
H        2.91880000       1.27920000      -1.03410000
H        4.25330000       1.22430000       1.20230000
H        3.79640000       3.33970000       2.39180000
H        1.52750000       3.83760000      -0.81310000
H        0.11010000       3.69390000       0.23270000
