19
Properties=species:S:1:pos:R:3 gdb_112218=T pbc="F F F"
C        0.03960000       1.53730000      -0.22880000
C       -0.02010000       0.00860000      -0.29010000
C       -1.36760000      -0.55230000       0.15780000
C       -2.52250000      -0.36630000      -0.87720000
C       -2.38920000      -1.85070000      -1.23570000
O       -2.73490000      -2.52530000      -2.15570000
C       -1.51130000      -2.12170000       0.02430000
C       -0.35080000      -2.97280000      -0.08160000
C        0.62020000      -3.67340000      -0.19260000
H        1.01690000       1.90500000      -0.55530000
H       -0.71850000       1.99820000      -0.87140000
H       -0.12920000       1.89930000       0.79160000
H        0.19550000      -0.33310000      -1.31110000
H        0.76760000      -0.42030000       0.33950000
H       -1.60730000      -0.19360000       1.16180000
H       -3.49620000      -0.14540000      -0.42830000
H       -2.35460000       0.33200000      -1.70120000
H       -2.18520000      -2.49150000       0.80900000
H        1.47270000      -4.29880000      -0.29120000
