23
Properties=species:S:1:pos:R:3 gdb_59172=T pbc="F F F"
C       -0.04650000       1.70510000      -0.34850000
C        0.09710000       0.18710000      -0.20970000
O        0.87050000      -0.14540000       0.94670000
C       -1.26340000      -0.48760000      -0.20620000
C       -1.94090000      -1.10890000      -1.39650000
C       -0.95090000      -1.90180000      -2.26480000
C       -0.65040000      -2.84080000      -1.04320000
C        0.77760000      -3.14250000      -0.59980000
C       -1.57290000      -1.96660000      -0.17690000
H        0.93730000       2.18170000      -0.34370000
H       -0.55990000       1.96550000      -1.28020000
H       -0.62890000       2.11700000       0.48460000
H        0.69450000      -0.18120000      -1.04830000
H        0.28190000      -0.12760000       1.70860000
H       -1.97940000       0.05920000       0.41100000
H       -2.92050000      -0.78240000      -1.72560000
H       -1.43340000      -2.43180000      -3.08890000
H       -0.10640000      -1.33850000      -2.67470000
H       -1.16460000      -3.79040000      -1.22730000
H        1.31150000      -2.24880000      -0.27140000
H        0.77270000      -3.84110000       0.24500000
H        1.34360000      -3.61520000      -1.41100000
H       -2.23360000      -2.35890000       0.58920000
