18
Properties=species:S:1:pos:R:3 gdb_56860=T pbc="F F F"
C       -0.05150000       1.63230000      -0.19410000
C       -0.00460000       0.11320000       0.07100000
C       -1.30940000      -0.39440000       0.49170000
C       -2.38500000      -0.80430000       0.83750000
C        0.54040000      -0.62880000      -1.15460000
C        0.39380000      -2.16190000      -1.25050000
C       -0.45750000      -1.84530000      -2.46130000
N       -1.07220000      -2.52220000      -3.31670000
O       -0.32040000      -0.47430000      -2.33050000
H        0.94710000       2.00650000      -0.44050000
H       -0.71990000       1.84600000      -1.03130000
H       -0.41500000       2.16570000       0.68680000
H        0.71470000      -0.07600000       0.88160000
H       -3.33650000      -1.16600000       1.14060000
H        1.54200000      -0.25220000      -1.38610000
H        1.30610000      -2.72140000      -1.46100000
H       -0.15280000      -2.62820000      -0.42990000
H       -1.53690000      -1.92210000      -4.00020000
