20
Properties=species:S:1:pos:R:3 gdb_14039=T pbc="F F F"
C        0.11200000       1.72150000      -0.10050000
C        1.61890000       1.43170000       0.11870000
C        1.24740000      -0.01930000       0.59360000
C       -0.14780000       0.19330000      -0.07640000
C        2.11510000      -1.22220000       0.15230000
C        2.87320000      -1.70850000       1.41490000
C        2.09720000      -1.06640000       2.53990000
C        1.22500000      -0.16400000       2.09460000
H       -0.33710000       2.22770000       0.75880000
H       -0.17070000       2.26660000      -1.00400000
H        2.17160000       1.40680000      -0.82580000
H        2.16390000       2.06340000       0.82520000
H       -1.02200000      -0.17230000       0.46980000
H       -0.16680000      -0.23170000      -1.08520000
H        1.45390000      -2.01970000      -0.20550000
H        2.78470000      -0.96890000      -0.67480000
H        2.90570000      -2.80180000       1.48960000
H        3.91970000      -1.37300000       1.42400000
H        2.27220000      -1.30480000       3.58360000
H        0.58060000       0.44560000       2.72070000
