21
Properties=species:S:1:pos:R:3 gdb_99642=T pbc="F F F"
C       -2.30080000       3.32450000      -0.18470000
C       -1.48430000       2.09020000      -0.57120000
C       -2.27690000       0.76860000      -0.46070000
C       -1.44940000      -0.34100000      -0.96460000
N       -0.79890000      -1.20280000      -1.37580000
N       -2.64090000       0.50210000       0.93210000
C       -3.98870000       0.87560000       1.36650000
C       -3.60990000      -0.55860000       1.25170000
C       -4.24050000      -1.46010000       0.21240000
H       -1.70850000       4.23140000      -0.33690000
H       -3.20630000       3.41470000      -0.79550000
H       -2.60000000       3.29380000       0.86570000
H       -1.13050000       2.18310000      -1.60390000
H       -0.59960000       2.00450000       0.06720000
H       -3.15520000       0.83820000      -1.12540000
H       -4.05350000       1.37260000       2.33060000
H       -4.67480000       1.26130000       0.61280000
H       -3.33890000      -1.07690000       2.16980000
H       -4.58860000      -0.91040000      -0.66610000
H       -3.53930000      -2.23030000      -0.12220000
H       -5.10950000      -1.96370000       0.64840000
