17
Properties=species:S:1:pos:R:3 gdb_28107=T pbc="F F F"
C        0.10220000       1.45660000       0.02230000
C       -0.07300000      -0.01820000      -0.00180000
C       -1.17090000      -0.82810000      -0.13090000
C       -0.68030000      -2.16680000      -0.07730000
C        0.66960000      -2.06050000       0.07920000
O        1.07580000      -0.77240000       0.12940000
C        1.32420000      -3.34900000       0.15180000
C        0.35080000      -4.28040000       0.03680000
C       -1.01980000      -3.62860000      -0.12020000
H        0.75290000       1.80150000      -0.79020000
H       -0.86880000       1.94440000      -0.08920000
H        0.54930000       1.79720000       0.96380000
H       -2.18590000      -0.47950000      -0.24760000
H        2.38390000      -3.52520000       0.27410000
H        0.49160000      -5.35270000       0.05040000
H       -1.69920000      -3.93980000       0.68430000
H       -1.49770000      -3.93570000      -1.05990000
