15
Properties=species:S:1:pos:R:3 gdb_130331=T pbc="F F F"
N        0.12250000       1.27850000       0.37680000
C        0.05310000      -0.06200000       0.06760000
N       -1.04620000      -0.75560000      -0.04530000
O       -0.63370000      -2.05460000      -0.29620000
N        0.73110000      -2.14490000      -0.33900000
C        1.17450000      -0.93850000      -0.11950000
N        2.50570000      -0.53580000      -0.14340000
C        3.24450000      -0.49760000       1.13430000
C        3.53680000      -1.53900000       0.11290000
H        0.91740000       1.74340000      -0.04030000
H       -0.74250000       1.77930000       0.22730000
H        3.90470000       0.35510000       1.25420000
H        2.70920000      -0.80600000       2.02770000
H        3.20160000      -2.55190000       0.31150000
H        4.41910000      -1.45100000      -0.51250000
