20
Properties=species:S:1:pos:R:3 gdb_62688=T pbc="F F F"
C       -0.13970000       1.62110000      -0.04650000
C        0.11250000       0.13050000       0.02950000
O       -0.97160000      -0.58430000      -0.54340000
C        1.40370000      -0.65360000      -0.20180000
C        2.67630000      -0.16260000       0.53050000
N        2.41570000       1.12560000       1.22350000
C        1.96690000      -0.15970000       1.82420000
C        0.66700000      -0.70700000       1.15570000
C       -0.07020000      -1.83950000       1.81160000
H       -0.20600000       1.92690000      -1.10000000
H       -1.10400000       1.84100000       0.42430000
H        0.64840000       2.19510000       0.43020000
H       -1.06510000      -0.27090000      -1.44970000
H        1.42250000      -1.42300000      -0.96420000
H        3.68640000      -0.46600000       0.28570000
H        3.28050000       1.37620000       1.70410000
H        2.29920000      -0.45570000       2.81180000
H       -0.57150000      -1.50050000       2.72740000
H       -0.82660000      -2.24750000       1.14040000
H        0.61780000      -2.64590000       2.09320000
