23
Properties=species:S:1:pos:R:3 gdb_104032=T pbc="F F F"
C        0.22820000       1.30210000       0.37880000
C        0.33950000      -0.17770000      -0.00680000
C        0.68890000      -0.44810000      -1.48600000
O       -0.29650000       0.17120000      -2.32300000
C        2.13230000       0.01090000      -1.88160000
C        2.97590000      -1.24090000      -2.05690000
C        3.05650000      -2.21800000      -0.90930000
C        2.06330000      -2.44600000      -2.02280000
C        0.63600000      -1.96720000      -1.82410000
H        1.15330000       1.85450000       0.18260000
H       -0.58540000       1.79800000      -0.16190000
H        0.00690000       1.40530000       1.44520000
H        1.08510000      -0.66280000       0.63350000
H       -0.61720000      -0.67080000       0.20220000
H       -0.26150000       1.12110000      -2.17080000
H        2.06220000       0.53890000      -2.83830000
H        2.56090000       0.70870000      -1.15360000
H        3.81710000      -1.19360000      -2.73990000
H        3.92260000      -2.87080000      -0.87980000
H        2.70190000      -1.92300000       0.07320000
H        2.22790000      -3.29140000      -2.68170000
H        0.09880000      -2.53130000      -1.05370000
H        0.07300000      -2.07410000      -2.75590000
