17
Properties=species:S:1:pos:R:3 gdb_127914=T pbc="F F F"
C        0.04100000       1.39040000      -0.02230000
N        0.02270000      -0.06370000       0.05540000
C       -1.09520000      -0.64010000       0.02350000
N       -1.32950000      -2.00880000       0.08370000
C       -2.67850000      -2.21470000       0.01330000
C       -3.33370000      -3.57080000       0.04480000
N       -4.78410000      -3.57130000      -0.04270000
N       -3.33880000      -1.10890000      -0.08400000
O       -2.34590000      -0.07980000      -0.07750000
H        1.07940000       1.72900000      -0.05040000
H       -0.46710000       1.76900000      -0.91960000
H       -0.44400000       1.85620000       0.84640000
H       -0.59790000      -2.69320000       0.15830000
H       -2.92350000      -4.17140000      -0.77770000
H       -3.02900000      -4.07960000       0.96880000
H       -5.16620000      -3.01180000       0.71450000
H       -5.06910000      -3.09600000      -0.89440000
