16
Properties=species:S:1:pos:R:3 gdb_79667=T pbc="F F F"
O        0.08390000       1.46170000       0.16650000
C       -0.03900000       0.08380000      -0.02790000
C       -1.32070000      -0.65810000       0.02910000
C       -2.45490000      -0.09600000      -0.83570000
C       -2.15300000       1.13850000      -1.59160000
N       -1.65110000      -0.16470000      -2.09940000
C       -0.46660000      -0.66280000      -1.28460000
C        0.34820000      -1.66890000      -1.86760000
C        1.05210000      -2.51600000      -2.35430000
H        0.91720000       1.73940000      -0.23100000
H        0.75480000      -0.48970000       0.45560000
H       -1.47960000      -1.47690000       0.71920000
H       -3.44480000      -0.53820000      -0.80070000
H       -2.95080000       1.51050000      -2.22940000
H       -1.47520000       1.87970000      -1.19890000
H        1.66360000      -3.26690000      -2.78950000
