15
Properties=species:S:1:pos:R:3 gdb_123784=T pbc="F F F"
C        0.80890000       0.80310000       0.61900000
C        0.72470000       0.23580000      -0.77540000
C       -0.53110000       0.37080000       0.06060000
N       -1.28440000      -0.73370000       0.55550000
C       -0.81730000      -1.80850000       0.96440000
O       -1.61920000      -2.84270000       1.43360000
C       -0.76220000      -3.81780000       1.77850000
N        0.47780000      -3.57020000       1.60280000
O        0.48220000      -2.25130000       1.06610000
H        1.26190000       0.17940000       1.37970000
H        0.97480000       1.86690000       0.74700000
H        0.83160000       0.90240000      -1.62390000
H        1.12250000      -0.75970000      -0.92890000
H       -1.19290000       1.17960000      -0.22840000
H       -1.16040000      -4.73810000       2.17690000
