21
Properties=species:S:1:pos:R:3 gdb_108875=T pbc="F F F"
O        0.09670000       1.43520000      -0.03250000
C        0.02130000       0.02590000       0.05320000
C       -1.41010000      -0.43920000       0.05950000
C       -2.43880000       0.40890000       0.11280000
C       -3.88730000      -0.00880000       0.08750000
O       -4.66760000       0.88310000      -0.70940000
C       -4.04700000      -1.46620000      -0.36170000
C       -3.02940000      -2.36490000       0.34790000
C       -1.59480000      -1.93920000       0.00350000
H        1.01820000       1.69130000       0.05950000
H        0.54490000      -0.45530000      -0.79320000
H        0.51750000      -0.34670000       0.96760000
H       -2.25290000       1.47700000       0.16560000
H       -4.31380000       0.10350000       1.09460000
H       -4.24930000       0.92640000      -1.57670000
H       -5.07360000      -1.79880000      -0.18020000
H       -3.88310000      -1.51350000      -1.44770000
H       -3.17800000      -2.29320000       1.43310000
H       -3.18560000      -3.41510000       0.07960000
H       -1.32920000      -2.29730000      -1.00310000
H       -0.88080000      -2.42700000       0.68130000
