16
Properties=species:S:1:pos:R:3 gdb_98963=T pbc="F F F"
O        0.08060000       1.26180000       0.67050000
C       -0.06770000      -0.09290000       0.38760000
C       -1.51290000      -0.42450000       0.04440000
N       -2.36540000       0.51300000       0.05490000
N       -1.73440000      -1.77270000      -0.25290000
C       -2.93200000      -2.36250000      -0.59460000
N       -4.03640000      -1.73210000      -0.69150000
C       -2.82240000      -3.85420000      -0.85200000
O       -3.77400000      -4.51780000      -1.16000000
H       -0.81440000       1.63380000       0.56700000
H        0.57250000      -0.39300000      -0.46080000
H        0.24030000      -0.71350000       1.24770000
H       -3.30330000       0.19410000      -0.18760000
H       -0.92900000      -2.37990000      -0.20830000
H       -4.76580000      -2.39740000      -0.95740000
H       -1.80880000      -4.30120000      -0.73970000
