19
Properties=species:S:1:pos:R:3 gdb_72148=T pbc="F F F"
O       -0.07730000       1.36280000       0.06530000
C        0.04300000      -0.02670000       0.05380000
C        0.92620000      -0.75620000       1.06440000
C        0.56500000      -2.13650000       0.49670000
C       -0.97370000      -2.15210000       0.63060000
C       -1.33760000      -0.78600000      -0.00680000
C       -1.18150000      -0.86610000      -1.54730000
C        0.34020000      -0.75450000      -1.31280000
O        0.89740000      -2.00850000      -0.90040000
H        0.79550000       1.74350000      -0.08350000
H        1.99120000      -0.52680000       0.96080000
H        0.60960000      -0.60810000       2.10010000
H        1.09270000      -3.00440000       0.89170000
H       -1.43100000      -2.99740000       0.10960000
H       -1.26410000      -2.20050000       1.68540000
H       -2.21610000      -0.29650000       0.41390000
H       -1.53950000      -1.76340000      -2.05820000
H       -1.57070000       0.02900000      -2.04000000
H        0.98600000      -0.30560000      -2.07200000
