14
Properties=species:S:1:pos:R:3 gdb_49831=T pbc="F F F"
N       -0.15870000       1.27600000      -0.38100000
C       -0.02050000       0.05760000      -0.11400000
N        1.02750000      -0.83580000       0.14470000
C        0.13870000      -1.91490000       0.57930000
C        0.16400000      -2.18530000       2.07240000
O        0.97320000      -1.67770000       2.80390000
C       -1.07550000      -1.06220000       0.04560000
C       -2.18060000      -0.81890000       0.95340000
N       -3.05460000      -0.65120000       1.69060000
H        0.73120000       1.77600000      -0.39660000
H        1.83860000      -0.58850000       0.69990000
H        0.27720000      -2.86500000       0.04780000
H       -0.59510000      -2.90670000       2.43840000
H       -1.45170000      -1.42170000      -0.91490000
