17
Properties=species:S:1:pos:R:3 gdb_69123=T pbc="F F F"
O       -0.08300000       1.28140000      -0.34150000
C       -0.05190000      -0.05810000      -0.02330000
C       -0.35570000      -1.11610000      -1.03250000
C       -1.33630000      -0.90960000       0.12870000
O       -1.24440000      -1.75180000       1.23660000
C        0.11860000      -1.74340000       1.69050000
C        0.76400000      -0.42950000       1.19890000
C       -2.61230000      -0.23560000      -0.09520000
O       -2.76610000       0.59820000      -0.97170000
H       -0.88980000       1.43680000      -0.86110000
H       -0.71080000      -0.77220000      -1.99840000
H        0.19700000      -2.04980000      -1.04060000
H        0.10980000      -1.83790000       2.77900000
H        0.64420000      -2.61500000       1.27910000
H        1.82990000      -0.55640000       0.99020000
H        0.65010000       0.37810000       1.92760000
H       -3.41880000      -0.48830000       0.62110000
