20
Properties=species:S:1:pos:R:3 gdb_32097=T pbc="F F F"
C        0.16700000       1.53580000       0.17620000
C       -0.06650000       0.03370000      -0.05130000
C        0.68610000      -0.48520000      -1.25430000
N        0.25940000      -0.05480000      -2.45090000
C        0.91290000      -0.48500000      -3.53080000
C        2.00330000      -1.34690000      -3.48870000
C        2.45960000      -1.79990000      -2.25030000
C        3.65180000      -2.71440000      -2.13610000
C        1.77310000      -1.35150000      -1.12170000
H        1.22100000       1.74330000       0.38910000
H       -0.11500000       2.09880000      -0.71730000
H       -0.42760000       1.90050000       1.01930000
H        0.22480000      -0.53240000       0.83990000
H       -1.13610000      -0.14100000      -0.21310000
H        0.54120000      -0.12530000      -4.48820000
H        2.48530000      -1.66210000      -4.40870000
H        4.58550000      -2.13890000      -2.13600000
H        3.62450000      -3.29340000      -1.20900000
H        3.70190000      -3.41140000      -2.97760000
H        2.08080000      -1.67910000      -0.13300000
