13
Properties=species:S:1:pos:R:3 gdb_21645=T pbc="F F F"
N       -0.03610000       1.37510000       0.14030000
C       -0.02660000      -0.01400000       0.03960000
N       -1.14520000      -0.67220000       0.03760000
N       -1.03860000      -2.01370000       0.04540000
C        0.13450000      -2.76080000      -0.01290000
N        0.06200000      -4.03450000      -0.05960000
N        1.32420000      -2.01090000      -0.00830000
C        1.23470000      -0.72810000       0.02330000
H        0.64740000       1.84120000      -0.44140000
H       -0.96100000       1.76340000       0.00620000
H       -1.91230000      -2.51720000       0.04710000
H        1.00540000      -4.41560000      -0.08440000
H        2.16290000      -0.15350000       0.04040000
