23
Properties=species:S:1:pos:R:3 gdb_85949=T pbc="F F F"
C        0.08750000       1.54790000      -0.09350000
C        0.01500000       0.02720000       0.04870000
O        0.54670000      -0.51290000      -1.15310000
C        0.87820000      -1.90970000      -1.14230000
C       -0.37260000      -2.76800000      -0.88920000
C        1.43150000      -2.18020000      -2.54120000
C        1.95510000      -2.16500000      -0.06700000
C        1.63380000      -1.45070000       1.21790000
C        0.74310000      -0.46440000       1.27040000
H        1.12950000       1.87190000      -0.16560000
H       -0.43870000       1.86350000      -0.99840000
H       -0.37500000       2.03780000       0.76880000
H       -1.05110000      -0.25330000       0.14000000
H       -1.17140000      -2.47620000      -1.57760000
H       -0.14850000      -3.82660000      -1.05410000
H       -0.73830000      -2.66130000       0.13560000
H        2.25770000      -1.49680000      -2.75650000
H        1.79760000      -3.20860000      -2.62040000
H        0.65550000      -2.02770000      -3.29680000
H        2.05010000      -3.24340000       0.11330000
H        2.93350000      -1.83490000      -0.44240000
H        2.15590000      -1.76910000       2.11660000
H        0.50100000       0.02790000       2.20890000
