13
Properties=species:S:1:pos:R:3 gdb_19338=T pbc="F F F"
N        0.03720000      -1.13280000      -0.13380000
C        0.05030000       0.02050000      -0.04550000
C        0.04750000       1.43660000       0.12070000
O        0.20890000       2.27830000      -1.03270000
C        1.12490000       2.43480000       0.05130000
C        0.46720000       3.27150000       1.18940000
C       -0.94940000       3.64810000       0.84100000
C       -0.64980000       2.24030000       1.27080000
H        2.18020000       2.31320000      -0.15860000
H        1.02980000       3.71690000       1.99750000
H       -1.45200000       4.24570000       1.59430000
H       -1.22490000       3.86500000      -0.18290000
H       -1.06870000       1.76030000       2.14370000
