14
Properties=species:S:1:pos:R:3 gdb_29466=T pbc="F F F"
N        0.03340000       1.40390000       0.16430000
C        0.03290000       0.01470000       0.04690000
C       -1.03670000      -0.84010000       0.00440000
O       -0.63690000      -2.19630000      -0.03140000
C        0.69330000      -2.11170000      -0.01510000
C        1.19350000      -0.84230000       0.03110000
N        2.57440000      -0.86790000       0.02940000
C        2.86750000      -2.14760000      -0.01600000
N        1.74740000      -2.97620000      -0.04730000
H        0.86040000       1.82640000      -0.23500000
H       -0.79960000       1.84910000      -0.19570000
H       -2.10170000      -0.68970000       0.00860000
H        3.86200000      -2.56710000      -0.02840000
H        1.73880000      -3.98090000      -0.07770000
