17
Properties=species:S:1:pos:R:3 gdb_37936=T pbc="F F F"
C        0.07860000       1.52380000       0.20420000
O        1.06880000       2.25030000      -0.51860000
C        2.25860000       1.59770000      -0.81590000
C        2.93790000       0.52280000       0.00730000
O        2.26230000      -0.13560000       1.05100000
C        1.14830000      -0.82410000       0.53950000
C        0.05460000       0.02730000      -0.04810000
C        1.08310000      -0.64170000      -0.95610000
C        2.29070000       0.17910000      -1.33320000
H        0.20830000       1.71280000       1.27980000
H       -0.87620000       1.96160000      -0.10120000
H        2.93620000       2.30540000      -1.28390000
H        4.00840000       0.57250000       0.17810000
H        0.94230000      -1.74810000       1.06720000
H       -0.93770000      -0.41270000      -0.05860000
H        0.76480000      -1.43210000      -1.62340000
H        2.84400000      -0.09480000      -2.22320000
