22
Properties=species:S:1:pos:R:3 gdb_103900=T pbc="F F F"
C        0.30370000       1.63700000       0.19820000
C       -0.10960000       0.18460000      -0.07550000
C        0.60350000      -0.43870000      -1.26870000
C        0.33380000       0.22350000      -2.60750000
C        1.92590000      -1.10110000      -1.04670000
N        0.74400000      -1.89970000      -1.36900000
C        0.21190000      -2.79050000      -0.35410000
C        0.64030000      -4.22150000      -0.65100000
O        0.75820000      -5.07740000       0.18590000
H        1.38320000       1.71310000       0.36550000
H        0.04760000       2.29750000      -0.63510000
H       -0.20250000       2.01990000       1.08940000
H        0.08300000      -0.40980000       0.82260000
H       -1.19370000       0.14270000      -0.24850000
H        0.72220000       1.24640000      -2.63570000
H        0.80540000      -0.34750000      -3.41040000
H       -0.74270000       0.26640000      -2.81030000
H        2.70200000      -1.06720000      -1.80740000
H        2.29920000      -1.14360000      -0.02340000
H        0.49010000      -2.56220000       0.68510000
H       -0.88700000      -2.77620000      -0.40840000
H        0.82390000      -4.41550000      -1.73090000
