15
Properties=species:S:1:pos:R:3 gdb_83077=T pbc="F F F"
O        0.21950000       1.12890000      -0.02540000
C       -0.11110000      -0.20560000       0.04020000
C       -0.66770000      -0.79520000       1.28000000
N       -1.23040000       0.19460000       2.16730000
C       -2.36090000       0.72120000       1.53490000
N       -2.60510000       0.29960000       0.35190000
C       -1.60150000      -0.66310000       0.02290000
C       -1.94770000      -1.79390000      -0.85510000
O       -1.21390000      -2.73690000      -1.05310000
H        0.11160000       1.49820000       0.86190000
H        0.51700000      -0.85290000      -0.56370000
H       -0.33330000      -1.74170000       1.68840000
H       -1.26280000       0.00470000       3.15830000
H       -2.95060000       1.47480000       2.04560000
H       -2.94450000      -1.70580000      -1.33620000
