18
Properties=species:S:1:pos:R:3 gdb_58017=T pbc="F F F"
C        0.03530000       1.28520000      -0.40180000
N       -0.01570000      -0.08710000       0.07090000
C        1.23880000      -0.66470000       0.51980000
C       -1.21190000      -0.73340000       0.07370000
O       -2.26760000      -0.25850000      -0.28970000
O       -1.08790000      -2.01450000       0.54510000
C       -2.28550000      -2.78210000       0.59970000
C       -2.21640000      -3.92280000      -0.39890000
O       -2.88420000      -4.91830000      -0.31780000
H        0.72220000       1.37290000      -1.25280000
H       -0.96360000       1.58770000      -0.70950000
H        0.38940000       1.95330000       0.39340000
H        1.65490000      -0.07600000       1.34740000
H        1.08510000      -1.68610000       0.85570000
H        1.97290000      -0.66410000      -0.29620000
H       -2.40500000      -3.17910000       1.61140000
H       -3.14180000      -2.14330000       0.35470000
H       -1.49530000      -3.75080000      -1.23010000
