17
Properties=species:S:1:pos:R:3 gdb_34251=T pbc="F F F"
C        0.06730000      -1.19040000      -0.05100000
C        0.01370000       0.01220000      -0.01120000
C       -0.05360000       1.43070000       0.04700000
C       -1.21980000       2.27030000       0.58850000
C       -0.74930000       3.45520000      -0.31420000
C        0.22890000       4.33690000       0.45890000
O        1.26610000       3.43000000       0.87040000
C        1.19940000       2.32090000       0.01100000
C        0.19740000       2.47930000      -1.06840000
H        0.11630000      -2.25030000      -0.08330000
H       -2.17810000       1.86350000       0.25990000
H       -1.24590000       2.44660000       1.66870000
H       -1.51360000       3.98890000      -0.87620000
H        0.65070000       5.13500000      -0.17030000
H       -0.20800000       4.78490000       1.35670000
H        2.15070000       1.82930000      -0.14920000
H        0.34420000       2.35100000      -2.13220000
