23
Properties=species:S:1:pos:R:3 gdb_61213=T pbc="F F F"
C        0.42180000       1.33650000       0.51790000
C        0.03450000      -0.06310000       0.02580000
C       -1.50760000      -0.16460000      -0.15230000
C       -2.25430000       0.00070000       1.08880000
C       -2.85160000       0.13020000       2.12460000
C        0.73960000      -0.52560000      -1.25890000
C        0.74040000      -2.03420000      -1.45060000
C        0.63820000       0.31850000      -2.51030000
C        1.95690000       0.20030000      -1.78580000
H        1.47790000       1.38550000       0.79490000
H        0.23300000       2.10410000      -0.24190000
H       -0.16920000       1.59640000       1.40010000
H        0.30990000      -0.77420000       0.81590000
H       -1.83040000       0.59310000      -0.87830000
H       -1.76660000      -1.13380000      -0.59310000
H       -3.39030000       0.24450000       3.03220000
H       -0.27290000      -2.45020000      -1.47980000
H        1.23080000      -2.31090000      -2.38910000
H        1.27800000      -2.53210000      -0.63500000
H        0.51870000      -0.18850000      -3.46230000
H        0.12270000       1.27150000      -2.45340000
H        2.32220000       1.07540000      -1.26320000
H        2.73970000      -0.40000000      -2.23790000
