21
Properties=species:S:1:pos:R:3 gdb_100569=T pbc="F F F"
C        0.19720000       1.56310000       1.00520000
C        0.37970000       0.23890000       0.25890000
C        0.51020000      -0.99170000       1.18050000
C       -0.75930000      -1.25700000       2.01570000
C        0.78740000      -2.23260000       0.33550000
O        0.13060000      -2.50600000      -0.63980000
C        1.97380000      -3.13530000       0.73730000
C        2.06700000      -3.42820000       2.15990000
C        2.13070000      -3.67190000       3.33540000
H        1.01870000       1.74170000       1.70830000
H        0.17600000       2.40080000       0.30130000
H       -0.73790000       1.58920000       1.57230000
H       -0.45480000       0.06700000      -0.42900000
H        1.27850000       0.30390000      -0.36760000
H        1.35050000      -0.84270000       1.86890000
H       -0.63510000      -2.14210000       2.64580000
H       -0.97870000      -0.41000000       2.67050000
H       -1.61730000      -1.42100000       1.35660000
H        1.90110000      -4.05150000       0.14400000
H        2.88590000      -2.61300000       0.41100000
H        2.19270000      -3.89270000       4.37230000
