16
Properties=species:S:1:pos:R:3 gdb_22617=T pbc="F F F"
O       -0.22570000       1.36940000      -0.10370000
N        0.03330000      -0.02110000       0.03270000
C       -1.06120000      -0.65600000       0.00200000
C       -2.53850000      -0.25290000      -0.03280000
O       -3.01750000       0.41650000      -1.17300000
C       -2.89530000      -1.74040000       0.06560000
C       -2.26400000      -2.49140000      -1.07150000
C       -1.39450000      -2.10330000       0.11340000
O       -0.78260000      -3.02640000       0.92880000
H        0.65830000       1.74760000      -0.05460000
H       -2.79310000       0.28200000       0.89440000
H       -2.48640000       1.21660000      -1.26290000
H       -3.69750000      -2.15060000       0.66350000
H       -2.49230000      -3.55230000      -1.09330000
H       -2.14770000      -2.01840000      -2.04080000
H       -0.03870000      -3.41030000       0.45120000
