16
Properties=species:S:1:pos:R:3 gdb_45170=T pbc="F F F"
O       -0.00170000       0.01020000      -0.32700000
C        0.00590000       1.17150000      -0.02290000
O       -1.15750000       1.84380000       0.19640000
C       -0.99580000       3.22790000       0.56200000
C       -0.12180000       3.31620000       1.82200000
C        1.24550000       3.04420000       1.21920000
C        1.24710000       1.98760000       0.15370000
N        1.25110000       3.43180000      -0.19980000
C       -0.11460000       3.90550000      -0.49590000
H       -2.00130000       3.63290000       0.66680000
H       -0.16520000       4.31990000       2.25710000
H       -0.42310000       2.59130000       2.58200000
H        2.15130000       3.22510000       1.78730000
H        2.15880000       1.45480000      -0.08840000
H       -0.40850000       3.64030000      -1.51430000
H       -0.13210000       4.99470000      -0.39080000
