24
Properties=species:S:1:pos:R:3 gdb_99772=T pbc="F F F"
C       -0.02310000       1.59840000       0.21660000
C       -0.05440000       0.07330000       0.02820000
C        0.72510000      -0.60390000       1.16360000
C       -1.50980000      -0.43410000      -0.11600000
C       -2.13000000      -0.01190000      -1.46000000
O       -1.43780000      -0.58040000      -2.55520000
N       -1.57170000      -1.90400000      -0.09900000
C       -1.73740000      -2.57900000       1.18210000
C       -2.87010000      -2.49730000       0.22470000
H        1.01040000       1.95160000       0.28860000
H       -0.49270000       2.13510000      -0.61190000
H       -0.53590000       1.89200000       1.14100000
H        0.44810000      -0.16580000      -0.91630000
H        0.80210000      -1.68340000       1.01890000
H        1.74210000      -0.20040000       1.21070000
H        0.25830000      -0.42140000       2.13950000
H       -2.12290000      -0.00760000       0.70180000
H       -3.19280000      -0.30430000      -1.46720000
H       -2.09400000       1.07340000      -1.58510000
H       -1.28190000      -1.50200000      -2.30920000
H       -1.18190000      -3.50400000       1.30880000
H       -1.80120000      -1.96180000       2.07590000
H       -3.68750000      -1.82490000       0.47980000
H       -3.16030000      -3.36040000      -0.36720000
