20
Properties=species:S:1:pos:R:3 gdb_91021=T pbc="F F F"
C       -0.27640000       1.55810000      -0.09550000
C        0.02910000       0.07280000       0.04890000
C        1.11900000      -0.56930000      -0.84330000
N        1.78610000      -1.22490000       0.33790000
C        2.88540000      -0.36690000       0.81430000
C        3.05730000      -0.57050000       2.29270000
C        1.98980000       0.37580000       1.79570000
O        1.94520000       1.71270000       2.15460000
C        0.81960000      -0.45380000       1.27300000
H        0.62520000       2.16830000      -0.00870000
H       -0.73570000       1.75640000      -1.07060000
H       -0.97780000       1.89540000       0.67560000
H       -0.90330000      -0.49490000      -0.03310000
H        0.76540000      -1.30460000      -1.57090000
H        1.76760000       0.14750000      -1.36000000
H        3.67960000      -0.04300000       0.15120000
H        2.81040000      -1.52970000       2.74270000
H        3.92080000      -0.06360000       2.71290000
H        1.87260000       1.77040000       3.11400000
H        0.24990000      -1.02880000       2.01060000
