15
Properties=species:S:1:pos:R:3 gdb_44728=T pbc="F F F"
O        0.15260000       0.02660000      -0.60060000
C        0.05160000       1.13140000      -0.16880000
C       -1.07940000       1.98950000       0.43540000
N       -0.13110000       3.13850000       0.58100000
C        0.58530000       3.13390000       1.89420000
C        1.85430000       2.47760000       1.25640000
C        2.38800000       1.27710000       1.87410000
N        2.79790000       0.32620000       2.38830000
C        1.00010000       2.34460000      -0.04150000
H       -1.88630000       2.20360000      -0.27390000
H       -1.52120000       1.61950000       1.36710000
H        0.75150000       4.13760000       2.29050000
H        0.10570000       2.52130000       2.66370000
H        2.66330000       3.19810000       1.11910000
H        1.45640000       2.70100000      -0.96820000
