18
Properties=species:S:1:pos:R:3 gdb_127032=T pbc="F F F"
C       -0.04280000       1.46500000       0.04060000
C       -0.00510000      -0.05140000       0.00060000
O       -1.35780000      -0.51790000       0.00940000
C       -1.52260000      -1.85120000      -0.01930000
N       -0.51230000      -2.70420000      -0.03800000
N       -1.13550000      -3.92860000      -0.03000000
C       -2.48770000      -3.82980000      -0.03580000
N       -3.29370000      -4.96620000      -0.12180000
C       -2.79210000      -2.48390000      -0.01290000
H        0.97570000       1.86490000       0.03520000
H       -0.57560000       1.86360000      -0.82760000
H       -0.54810000       1.81750000       0.94440000
H        0.50120000      -0.42070000      -0.89950000
H        0.52830000      -0.46730000       0.86380000
H       -0.58830000      -4.74910000      -0.22150000
H       -3.03190000      -5.69290000       0.53400000
H       -4.27190000      -4.74290000       0.00150000
H       -3.76350000      -2.02170000       0.03190000
