20
Properties=species:S:1:pos:R:3 gdb_60153=T pbc="F F F"
C        0.14610000       1.58420000       0.25710000
C        0.00710000       0.08150000       0.02360000
O        0.92570000      -0.65930000       0.82590000
C       -1.43190000      -0.41330000       0.23820000
C       -1.60070000      -1.87750000      -0.11170000
C       -3.02830000      -2.46250000      -0.15940000
C       -2.74080000      -2.63950000      -1.63520000
N       -3.37840000      -3.10010000      -2.61150000
O       -1.47070000      -2.10660000      -1.56380000
H        1.18460000       1.89460000       0.11450000
H       -0.48530000       2.15360000      -0.43230000
H       -0.15450000       1.85000000       1.27910000
H        0.29620000      -0.15290000      -1.00720000
H        0.80200000      -0.38480000       1.74170000
H       -1.71150000      -0.26930000       1.29230000
H       -2.12720000       0.18520000      -0.36310000
H       -0.86380000      -2.48880000       0.41380000
H       -3.18980000      -3.39110000       0.39010000
H       -3.83380000      -1.76050000       0.06610000
H       -2.82520000      -3.05120000      -3.46890000
