21
Properties=species:S:1:pos:R:3 gdb_58554=T pbc="F F F"
C        0.06180000       1.49760000      -0.13630000
N       -0.00060000       0.04450000       0.02710000
C        0.75550000      -0.35020000       1.21490000
C       -1.34060000      -0.52220000      -0.04180000
C       -2.16660000       0.04730000      -1.19670000
C       -1.42210000      -2.07690000       0.02760000
O       -2.25130000      -1.99260000       1.22710000
C       -2.16460000      -0.61590000       1.25620000
N       -2.60710000       0.21350000       2.08690000
H        1.11260000       1.80070000      -0.10550000
H       -0.33570000       1.79990000      -1.10620000
H       -0.47520000       2.04860000       0.65310000
H        0.34860000       0.07480000       2.14710000
H        0.78260000      -1.43670000       1.32130000
H        1.78850000      -0.00780000       1.10430000
H       -1.60450000      -0.01540000      -2.13380000
H       -3.09210000      -0.52410000      -1.30710000
H       -2.44640000       1.08680000      -1.01550000
H       -1.96210000      -2.56000000      -0.79010000
H       -0.49050000      -2.60730000       0.22730000
H       -3.10700000      -0.24730000       2.85030000
