16
Properties=species:S:1:pos:R:3 gdb_76999=T pbc="F F F"
C       -0.02660000       1.40030000       0.07370000
N        0.00210000      -0.04180000       0.04120000
C       -1.18420000      -0.87780000       0.08020000
C       -0.59610000      -2.27820000       0.01940000
C        0.73010000      -2.21160000      -0.05520000
C        1.16570000      -0.78240000      -0.04730000
O        2.29160000      -0.33360000      -0.10960000
C       -2.01570000      -0.66040000       1.26760000
C       -2.70650000      -0.47410000       2.23260000
H        1.01050000       1.74050000       0.07340000
H       -0.53870000       1.81420000      -0.80430000
H       -0.53070000       1.76480000       0.97560000
H       -1.80660000      -0.70150000      -0.81370000
H       -1.22890000      -3.15440000       0.04540000
H        1.44020000      -3.02360000      -0.11710000
H       -3.31270000      -0.31320000       3.09010000
