21
Properties=species:S:1:pos:R:3 gdb_117918=T pbc="F F F"
C       -0.05770000       1.58580000      -0.07790000
C       -0.09180000       0.05760000      -0.17560000
C       -1.45400000      -0.52490000       0.21740000
C       -1.55900000      -2.04920000       0.05740000
C       -0.65430000      -2.83530000       1.03630000
C       -2.98580000      -2.51960000       0.25420000
O       -3.84880000      -1.90930000       0.84340000
C       -3.37950000      -3.88380000      -0.34070000
O       -2.65130000      -4.56240000      -1.01590000
H        0.92310000       1.98080000      -0.36000000
H       -0.80390000       2.04160000      -0.73790000
H       -0.27180000       1.92150000       0.94270000
H        0.15280000      -0.24920000      -1.20150000
H        0.69610000      -0.35980000       0.46260000
H       -1.69190000      -0.25710000       1.25400000
H       -2.23410000      -0.05410000      -0.39380000
H       -1.26830000      -2.34530000      -0.95910000
H        0.39480000      -2.58050000       0.87010000
H       -0.90520000      -2.59260000       2.07420000
H       -0.76010000      -3.91360000       0.89400000
H       -4.42610000      -4.16450000      -0.09510000
