18
Properties=species:S:1:pos:R:3 gdb_36257=T pbc="F F F"
N       -0.01790000      -1.15940000      -0.33540000
C       -0.03770000      -0.03430000      -0.07140000
C       -0.03190000       1.39090000       0.25630000
C        1.36850000       2.00710000       0.14140000
C        1.95130000       2.30330000      -1.25570000
C        1.11160000       3.62140000      -1.42780000
C        2.36030000       4.45610000      -1.77170000
C        2.84430000       3.46540000      -0.69650000
C        1.49290000       3.54450000       0.09540000
H       -0.73480000       1.90290000      -0.41040000
H       -0.41710000       1.51290000       1.27580000
H        2.05900000       1.50600000       0.82910000
H        2.22510000       1.60380000      -2.04620000
H        0.10620000       3.70200000      -1.84290000
H        2.77310000       4.33120000      -2.77760000
H        2.33730000       5.51450000      -1.49350000
H        3.83380000       3.34820000      -0.25250000
H        1.23870000       4.27810000       0.86270000
