18
Properties=species:S:1:pos:R:3 gdb_37465=T pbc="F F F"
C       -0.01800000       1.57230000       0.05720000
C        1.46010000       1.99790000      -0.15160000
N        2.15010000       0.85620000      -0.80040000
C        2.42630000      -0.40110000      -0.07240000
C        1.96190000      -0.70420000       1.34250000
O        1.39670000       0.36380000       2.11420000
C        0.51030000      -0.51840000       1.40140000
C        0.03610000       0.02470000       0.03910000
C        1.21170000      -0.25240000      -0.93340000
H       -0.44000000       1.96440000       0.98560000
H       -0.63580000       1.92840000      -0.77330000
H        1.53490000       2.84390000      -0.84250000
H        1.94870000       2.27290000       0.78170000
H        3.33470000      -0.89630000      -0.40370000
H        2.50650000      -1.45230000       1.91320000
H       -0.15660000      -1.10210000       2.03100000
H       -0.90520000      -0.43700000      -0.26530000
H        1.06160000      -0.70640000      -1.90950000
