20
Properties=species:S:1:pos:R:3 gdb_86813=T pbc="F F F"
C        0.40750000       1.50600000      -0.71710000
C        0.03220000       0.14150000      -0.17760000
C        0.61990000      -1.11980000      -0.84700000
C        1.12150000      -1.46640000       0.56610000
C        2.60590000      -1.70770000       0.78790000
C        3.04700000      -3.06060000       0.23930000
N        4.26620000      -3.49040000       0.67570000
O        2.37210000      -3.70430000      -0.54320000
O        0.71150000      -0.17270000       1.06830000
H        1.48740000       1.57600000      -0.88120000
H       -0.10270000       1.69270000      -1.66870000
H        0.11530000       2.29230000      -0.01360000
H       -1.05670000       0.08020000      -0.03590000
H       -0.07910000      -1.82160000      -1.30000000
H        1.42300000      -0.90660000      -1.55690000
H        0.54250000      -2.27070000       1.03860000
H        3.18470000      -0.91740000       0.29270000
H        2.83320000      -1.63320000       1.85860000
H        4.81460000      -2.97480000       1.34070000
H        4.61660000      -4.36860000       0.33000000
