14
Properties=species:S:1:pos:R:3 gdb_131302=T pbc="F F F"
O        0.10730000       1.30390000       0.02260000
C        0.08090000      -0.03230000       0.00270000
N        0.19650000      -0.70500000      -1.12990000
N        0.12190000      -1.99670000      -0.68520000
C        0.16510000      -3.08090000      -1.63280000
C       -1.05700000      -3.10380000      -2.55600000
O       -1.20310000      -3.94090000      -3.40270000
C       -0.03580000      -2.01240000       0.64980000
N       -0.06240000      -0.78020000       1.12910000
H        0.01070000       1.56950000       0.94530000
H        1.06460000      -2.99990000      -2.25160000
H        0.21570000      -4.02820000      -1.08820000
H       -1.78950000      -2.28870000      -2.37820000
H       -0.11890000      -2.92400000       1.22280000
