23
Properties=species:S:1:pos:R:3 gdb_100970=T pbc="F F F"
C       -0.15750000       1.51790000      -0.10080000
C       -0.15860000      -0.00720000      -0.24140000
C        0.89680000      -0.56330000      -1.21620000
C        2.33900000      -0.24070000      -0.79040000
C        0.72110000      -2.06720000      -1.38510000
O        0.89300000      -2.83250000      -0.21630000
C       -0.35030000      -2.60800000      -2.29570000
C        1.11360000      -2.73940000      -2.67340000
O        1.65180000      -1.94520000      -3.69140000
H        0.77200000       1.89090000       0.34020000
H       -0.28170000       2.00740000      -1.07390000
H       -0.97860000       1.84940000       0.54290000
H       -0.01270000      -0.47500000       0.73950000
H       -1.14790000      -0.33380000      -0.58500000
H        0.73620000      -0.11450000      -2.20330000
H        3.05440000      -0.66550000      -1.50110000
H        2.51330000       0.83760000      -0.75030000
H        2.55940000      -0.63930000       0.20770000
H        1.82780000      -2.80700000       0.01640000
H       -0.87600000      -3.50120000      -1.97810000
H       -0.94160000      -1.88560000      -2.84910000
H        1.55400000      -3.73180000      -2.57400000
H        1.27830000      -2.23900000      -4.52890000
