15
Properties=species:S:1:pos:R:3 gdb_127137=T pbc="F F F"
C       -0.03600000       1.40870000       0.06460000
N       -0.17200000      -0.03960000      -0.01360000
C        0.09760000      -0.80810000       1.19470000
C       -0.02890000      -0.60570000      -1.22980000
N        0.13580000       0.01470000      -2.35760000
O        0.11820000      -1.05230000      -3.32130000
C       -0.01070000      -2.23100000      -2.69160000
O       -0.04220000      -3.31770000      -3.16520000
O       -0.10650000      -1.95490000      -1.32950000
H        1.01520000       1.72120000       0.12460000
H       -0.48220000       1.86170000      -0.82170000
H       -0.56190000       1.76150000       0.95520000
H       -0.53640000      -0.43010000       2.00150000
H       -0.13740000      -1.85840000       1.02810000
H        1.14760000      -0.72370000       1.50810000
