20
Properties=species:S:1:pos:R:3 gdb_113908=T pbc="F F F"
N        0.40460000       0.09980000       1.05600000
C        0.00810000       0.14080000      -0.24790000
O        0.44740000       0.94840000      -1.04280000
C       -1.06390000      -0.88200000      -0.64300000
C       -1.06280000      -2.17980000       0.14170000
C       -1.84860000      -2.33500000       1.43080000
C       -2.25060000      -3.11210000       0.20260000
C       -3.55730000      -2.82720000      -0.49100000
O       -4.57500000      -3.53640000       0.20410000
H        1.08000000       0.77620000       1.37070000
H        0.02890000      -0.56900000       1.70480000
H       -2.02860000      -0.37030000      -0.54540000
H       -0.91940000      -1.06360000      -1.71210000
H       -0.10270000      -2.68980000       0.12060000
H       -1.40660000      -2.87120000       2.26380000
H       -2.49760000      -1.51440000       1.72340000
H       -2.00830000      -4.17110000       0.21440000
H       -3.76390000      -1.74640000      -0.49560000
H       -3.49850000      -3.15160000      -1.54250000
H       -5.39650000      -3.43440000      -0.28580000
