17
Properties=species:S:1:pos:R:3 gdb_22680=T pbc="F F F"
O       -0.18970000       1.22840000       0.65930000
N        0.15200000       0.15260000      -0.14410000
C       -0.81900000      -0.67930000      -0.30690000
C       -0.52480000      -1.89850000      -1.17120000
N       -0.13320000      -3.14300000      -0.50560000
C        0.79020000      -3.09090000       0.61980000
C       -0.63670000      -3.47260000       0.82390000
C       -2.11680000      -0.51140000       0.25470000
C       -3.23540000      -0.40700000       0.68910000
H        0.61860000       1.75400000       0.65870000
H       -1.41340000      -2.11660000      -1.77240000
H        0.28880000      -1.62740000      -1.84970000
H        1.56990000      -3.84780000       0.61470000
H        1.09940000      -2.11610000       0.98950000
H       -1.27260000      -2.75960000       1.34110000
H       -0.91460000      -4.51360000       0.96550000
H       -4.21670000      -0.30420000       1.08320000
