17
Properties=species:S:1:pos:R:3 gdb_2985=T pbc="F F F"
C        0.10010000       1.43870000       0.10850000
C       -0.04230000      -0.08960000       0.00390000
C       -1.51140000      -0.47030000      -0.01530000
O       -2.06450000      -1.15680000       0.80400000
C        0.62660000      -0.63160000      -1.25120000
C        2.08880000      -1.00150000      -1.22930000
C        1.03870000      -2.07990000      -1.33150000
H        1.15570000       1.72270000       0.07390000
H       -0.40720000       1.93870000      -0.72460000
H       -0.32950000       1.81700000       1.04090000
H        0.39730000      -0.56870000       0.88580000
H       -2.07270000      -0.05360000      -0.88740000
H        0.26290000      -0.18520000      -2.17420000
H        2.68880000      -0.77930000      -2.10480000
H        2.62190000      -0.90180000      -0.28930000
H        0.86400000      -2.70050000      -0.45890000
H        0.92040000      -2.59880000      -2.27600000
