17
Properties=species:S:1:pos:R:3 gdb_44565=T pbc="F F F"
N        0.36620000       0.92010000       0.62840000
C        0.13130000      -0.18710000       0.09140000
O        0.92360000      -0.98780000      -0.70970000
C       -0.10860000      -2.02610000      -0.75950000
C        0.14620000      -3.21760000       0.14360000
N        0.70710000      -2.82000000       1.44970000
C       -0.72800000      -3.10820000       1.35140000
C       -1.57820000      -1.84530000       1.27650000
C       -1.07990000      -1.10120000       0.02120000
H        1.32140000       1.22890000       0.44040000
H       -0.33530000      -2.29720000      -1.79170000
H        0.42260000      -4.17510000      -0.28400000
H        1.20040000      -3.60780000       1.86060000
H       -1.12420000      -3.99170000       1.84310000
H       -2.63340000      -2.11390000       1.16330000
H       -1.48100000      -1.23260000       2.17710000
H       -1.88880000      -0.65760000      -0.56150000
