24
Properties=species:S:1:pos:R:3 gdb_81781=T pbc="F F F"
C       -0.24880000       1.50580000      -0.13100000
C        0.09680000       0.02970000      -0.01970000
N        1.07720000      -0.52040000      -1.02850000
C        2.38810000       0.08640000      -0.71410000
C        1.92570000      -1.03630000       0.12650000
C        2.59450000      -2.38180000       0.10410000
C        0.91570000      -0.54700000       1.19210000
C        1.44980000       0.41660000       2.25380000
C        0.16160000      -1.69370000       1.87160000
H        0.61310000       2.16380000       0.00670000
H       -0.67420000       1.71260000      -1.11870000
H       -0.99660000       1.77980000       0.62090000
H       -0.82630000      -0.54550000      -0.14260000
H        3.13760000      -0.13630000      -1.46840000
H        2.44090000       1.10110000      -0.33170000
H        3.02400000      -2.57440000      -0.88340000
H        3.40780000      -2.42580000       0.83860000
H        1.89520000      -3.19240000       0.32950000
H        2.00480000       1.25510000       1.82660000
H        0.63040000       0.83200000       2.85160000
H        2.12350000      -0.10750000       2.94170000
H        0.80520000      -2.23870000       2.57150000
H       -0.68980000      -1.30350000       2.44090000
H       -0.22730000      -2.41120000       1.14250000
