12
Properties=species:S:1:pos:R:3 gdb_5190=T pbc="F F F"
N       -0.10180000       1.29120000       0.00990000
C       -0.00450000       0.03630000       0.00210000
O       -1.15970000      -0.69410000       0.00720000
C       -1.08930000      -2.04430000      -0.00040000
C       -2.14910000      -2.89120000       0.00240000
O       -1.63510000      -4.16460000      -0.00760000
C       -0.30350000      -3.99750000      -0.01600000
N        0.08960000      -2.76210000      -0.01210000
H        0.82810000       1.70620000       0.00500000
H        0.89460000      -0.58050000      -0.00820000
H       -3.21710000      -2.78100000       0.01030000
H        0.30570000      -4.88710000      -0.02470000
