17
Properties=species:S:1:pos:R:3 gdb_69621=T pbc="F F F"
C       -0.13190000       1.51800000       0.04490000
C        0.11560000       0.04830000       0.00640000
O       -0.79820000      -0.83690000       0.68440000
C        0.59950000      -0.92210000       0.98150000
C        1.32370000      -1.75920000      -0.13490000
C        0.34020000      -2.17210000      -1.21270000
C        0.78530000      -0.74320000      -1.16670000
C        2.63600000      -2.27510000       0.00800000
C        3.75060000      -2.70370000       0.16730000
H        0.77570000       2.06770000      -0.22490000
H       -0.91900000       1.79880000      -0.66420000
H       -0.44440000       1.82440000       1.04640000
H        0.91480000      -0.83680000       2.01470000
H        0.78040000      -2.76540000      -2.00660000
H       -0.67070000      -2.43630000      -0.92980000
H        1.35760000      -0.27160000      -1.95430000
H        4.73200000      -3.08590000       0.29880000
