19
Properties=species:S:1:pos:R:3 gdb_67380=T pbc="F F F"
C       -0.01670000       1.52040000      -0.05010000
C        0.00450000       0.02320000       0.00440000
C        0.50870000      -1.02270000      -0.95430000
C        1.26770000      -1.75520000       0.14570000
C        0.48360000      -0.89430000       1.18910000
C       -0.75610000      -1.64460000       1.67620000
C       -1.59710000      -1.81470000       0.39890000
O       -2.58610000      -2.49520000       0.28020000
C       -0.99940000      -0.91240000      -0.63440000
H        0.97100000       1.94120000       0.17040000
H       -0.31380000       1.87160000      -1.04360000
H       -0.72540000       1.93780000       0.67480000
H        0.81370000      -0.90890000      -1.98870000
H        1.16310000      -2.84360000       0.21860000
H        2.33030000      -1.49970000       0.12530000
H        1.07790000      -0.42520000       1.97240000
H       -0.54970000      -2.60870000       2.14920000
H       -1.34120000      -1.04510000       2.38560000
H       -1.62090000      -0.58100000      -1.45780000
