20
Properties=species:S:1:pos:R:3 gdb_22047=T pbc="F F F"
C        0.00800000       1.46460000      -0.11690000
C        0.04150000      -0.03310000       0.04550000
N        0.08620000      -0.62500000       1.17810000
O        0.06350000       0.27820000       2.24840000
C        0.04260000      -0.92340000      -1.19800000
C        0.01550000      -2.42030000      -0.83980000
C       -1.12960000      -0.56090000      -2.12540000
C        1.38060000      -0.64850000      -1.89600000
O        1.51370000      -0.06570000      -2.94010000
H        0.63940000       1.93670000       0.63870000
H        0.34110000       1.76560000      -1.11180000
H       -1.00850000       1.84630000       0.03190000
H        0.12870000      -0.30870000       3.00940000
H       -0.87990000      -2.65530000      -0.26040000
H        0.01020000      -3.02190000      -1.75420000
H        0.87900000      -2.70620000      -0.23480000
H       -1.09600000       0.48420000      -2.43740000
H       -1.09040000      -1.17120000      -3.03180000
H       -2.08240000      -0.74790000      -1.62180000
H        2.26060000      -1.03690000      -1.33380000
