21
Properties=species:S:1:pos:R:3 gdb_89845=T pbc="F F F"
C       -0.59280000       1.40720000       0.16840000
C        0.02840000       0.01920000       0.03670000
C        0.92840000      -0.17150000      -1.22250000
C        2.16170000      -0.91630000      -0.71470000
C        3.29470000      -1.33720000      -1.53660000
O        3.39720000      -0.15920000      -0.72720000
C        1.79930000      -1.51130000       0.63540000
C        0.93750000      -0.38720000       1.23290000
O        1.74140000       0.68180000       1.71290000
H        0.18540000       2.16700000       0.27890000
H       -1.19730000       1.65270000      -0.71090000
H       -1.24050000       1.46840000       1.04930000
H       -0.77770000      -0.72480000      -0.00440000
H        0.41020000      -0.73830000      -2.00210000
H        1.23830000       0.78120000      -1.66170000
H        3.91310000      -2.17700000      -1.22030000
H        3.27930000      -1.15780000      -2.61110000
H        1.19850000      -2.41920000       0.50230000
H        2.67590000      -1.75280000       1.24080000
H        0.33990000      -0.71280000       2.08950000
H        2.48650000       0.79750000       1.11100000
