20
Properties=species:S:1:pos:R:3 gdb_79915=T pbc="F F F"
C       -0.20570000       1.50640000      -0.17810000
N        0.03890000       0.08640000       0.03220000
C        1.35520000      -0.53630000      -0.15800000
C        2.56630000       0.34200000      -0.11800000
C        2.71220000       0.93690000       1.06970000
C        3.71840000       1.96330000       1.48020000
C        1.64270000       0.45140000       2.04990000
O        0.90470000       1.49760000       2.67780000
C        0.72690000      -0.43290000       1.20170000
H        0.63160000       2.16650000       0.07470000
H       -0.46600000       1.65510000      -1.23160000
H       -1.06220000       1.80030000       0.43430000
H        1.35820000      -1.44690000      -0.75030000
H        3.20250000       0.50840000      -0.98120000
H        4.39620000       2.21690000       0.66110000
H        3.22360000       2.88730000       1.80520000
H        4.32480000       1.61340000       2.32680000
H        2.11230000      -0.18120000       2.82290000
H        1.47630000       1.92000000       3.32640000
H        0.23600000      -1.26630000       1.69580000
