21
Properties=species:S:1:pos:R:3 gdb_32972=T pbc="F F F"
C       -0.05030000       1.56660000      -0.00670000
C       -0.09070000       0.03790000      -0.06470000
C        0.76500000      -0.53410000      -1.21250000
C        0.79260000      -2.02880000      -1.26340000
N        1.76370000      -2.77520000      -0.77350000
C        1.38400000      -4.07680000      -0.99310000
C        0.17200000      -4.12070000      -1.62420000
N       -0.20600000      -2.80440000      -1.80000000
C       -1.45300000      -2.36700000      -2.39500000
H        0.97320000       1.92870000       0.13950000
H       -0.42760000       2.01090000      -0.93490000
H       -0.66020000       1.94950000       0.81720000
H        0.26990000      -0.38460000       0.87990000
H       -1.12950000      -0.29910000      -0.17420000
H        0.41890000      -0.11670000      -2.16770000
H        1.80200000      -0.20940000      -1.08620000
H        2.00820000      -4.90520000      -0.69370000
H       -0.44660000      -4.93320000      -1.96910000
H       -2.26590000      -2.34090000      -1.66070000
H       -1.33480000      -1.36770000      -2.81730000
H       -1.73360000      -3.04840000      -3.20180000
