18
Properties=species:S:1:pos:R:3 gdb_116698=T pbc="F F F"
C        0.04890000       0.57050000      -0.48590000
O       -0.21010000       0.18240000       0.85910000
C        0.47950000      -0.88580000       1.29590000
N        0.27600000      -1.33430000       2.45850000
C        1.05180000      -2.45990000       2.87630000
C        0.46230000      -3.84700000       3.01180000
C       -0.38220000      -4.14760000       1.77790000
O        0.71920000      -3.81630000       0.88570000
C        1.57410000      -3.57510000       2.00690000
H       -0.25450000      -0.21070000      -1.19280000
H       -0.54420000       1.46770000      -0.66600000
H        1.10930000       0.80470000      -0.63910000
H        1.19570000      -1.29970000       0.57600000
H        1.71450000      -2.23090000       3.70990000
H        0.45380000      -4.40790000       3.93670000
H       -0.65230000      -5.20280000       1.66880000
H       -1.25780000      -3.51090000       1.61010000
H        2.60400000      -3.90910000       1.93220000
