23
Properties=species:S:1:pos:R:3 gdb_59547=T pbc="F F F"
C       -0.22520000       1.48520000       0.01100000
C        0.06830000      -0.01930000      -0.07810000
C        0.92070000      -0.33010000      -1.31680000
C        0.73080000      -0.52200000       1.20650000
C       -0.10350000      -0.47880000       2.54240000
C        0.09480000      -1.99150000       2.65990000
O       -0.45480000      -2.58650000       1.47390000
C        0.87970000      -2.05370000       1.41470000
C        1.98260000      -2.96650000       0.98310000
H        0.70390000       2.06150000       0.10090000
H       -0.74610000       1.83660000      -0.88590000
H       -0.85070000       1.72670000       0.87610000
H       -0.88550000      -0.55330000      -0.17480000
H        1.90790000       0.14300000      -1.24530000
H        1.07270000      -1.40560000      -1.44660000
H        0.44050000       0.04670000      -2.22610000
H        1.69840000      -0.02490000       1.35000000
H        0.38760000       0.09170000       3.33440000
H       -1.14590000      -0.16000000       2.45710000
H        0.13000000      -2.61350000       3.54790000
H        1.95470000      -3.14480000      -0.09710000
H        2.95910000      -2.53440000       1.22540000
H        1.89200000      -3.93310000       1.48660000
