20
Properties=species:S:1:pos:R:3 gdb_103798=T pbc="F F F"
C        0.03470000       1.66220000       0.03050000
C       -0.09260000       0.14970000       0.09730000
C       -1.39490000      -0.39000000      -0.38810000
N       -1.45810000      -0.13880000      -1.92140000
H       -0.63730000      -0.59070000      -2.33600000
H       -2.31050000      -0.47480000      -2.37460000
H       -1.35950000       0.86770000      -2.08060000
C        1.10960000      -0.74210000      -0.18000000
C        0.56930000      -0.64790000       1.21960000
C        1.41590000       0.11340000       2.30450000
O        2.21750000       0.95410000       1.83300000
O        1.16150000      -0.23020000       3.46270000
H        0.96720000       1.93380000       0.53920000
H        0.07530000       2.04800000      -1.00290000
H       -0.80050000       2.15350000       0.54560000
H       -1.49710000      -1.46980000      -0.26720000
H       -2.27390000       0.11890000       0.01810000
H        0.97290000      -1.66070000      -0.75140000
H        2.05490000      -0.22710000      -0.31630000
H       -0.00280000      -1.48760000       1.60480000
