18
Properties=species:S:1:pos:R:3 gdb_42434=T pbc="F F F"
O       -0.18560000      -0.00080000      -0.15210000
C       -0.10290000       1.17130000       0.14330000
C        1.21080000       1.93770000       0.17820000
C        2.41570000       1.02950000      -0.11620000
C        3.67420000       1.76440000      -0.11540000
C        4.69870000       2.39330000      -0.11020000
N       -1.20560000       1.91300000       0.56710000
C       -1.76430000       3.05900000      -0.12980000
C       -2.51590000       1.76490000      -0.01830000
H        1.16660000       2.75490000      -0.55190000
H        1.31400000       2.42000000       1.15580000
H        2.44890000       0.22270000       0.62430000
H        2.26600000       0.53380000      -1.08140000
H        5.61310000       2.93260000      -0.10840000
H       -2.03770000       3.90880000       0.48950000
H       -1.35040000       3.31470000      -1.10260000
H       -2.59090000       1.13920000      -0.90340000
H       -3.34190000       1.68050000       0.68160000
