13
Properties=species:S:1:pos:R:3 gdb_4745=T pbc="F F F"
N       -0.02630000       1.40830000       0.14940000
C       -0.03210000       0.02280000       0.04790000
C       -1.12620000      -0.83710000       0.02200000
N       -0.58520000      -2.09260000      -0.01090000
C        0.77590000      -1.96420000       0.00050000
C        1.63510000      -3.14170000      -0.02890000
O        2.84320000      -3.13880000      -0.02300000
N        1.12630000      -0.68170000       0.03250000
H        0.87630000       1.79220000      -0.09710000
H       -0.77160000       1.87060000      -0.35160000
H       -2.18900000      -0.66390000       0.03200000
H       -1.09880000      -2.95870000      -0.03870000
H        1.05640000      -4.09710000      -0.05960000
