17
Properties=species:S:1:pos:R:3 gdb_65296=T pbc="F F F"
N       -0.12480000       1.43410000      -0.13170000
C       -0.04350000      -0.00030000      -0.02290000
C       -0.37960000      -0.59130000       1.35380000
C       -1.35560000      -0.73340000       0.24870000
C       -2.75960000      -0.18880000       0.04170000
C       -2.98890000      -1.53560000      -0.68160000
O       -1.64800000      -1.98340000      -0.34410000
C        0.95210000      -0.68340000      -0.81860000
N        1.76110000      -1.17080000      -1.48800000
H        0.72400000       1.86690000       0.22190000
H       -0.21870000       1.71410000      -1.10360000
H        0.16440000      -1.48080000       1.65090000
H       -0.57950000       0.13160000       2.13690000
H       -3.33510000      -0.05560000       0.95920000
H       -2.83110000       0.71400000      -0.56480000
H       -3.74790000      -2.19520000      -0.25110000
H       -3.12860000      -1.47230000      -1.76590000
