22
Properties=species:S:1:pos:R:3 gdb_9917=T pbc="F F F"
C        0.11550000       1.31010000      -0.20960000
O        0.02400000      -0.05850000       0.09770000
C       -1.28280000      -0.57090000      -0.05770000
C       -1.26180000      -2.05160000       0.31110000
C       -2.59280000      -2.75880000       0.10610000
C       -3.73450000      -2.28930000       0.99050000
C       -2.93250000      -3.22010000      -1.29360000
C       -2.54600000      -4.22880000      -0.23720000
H        1.15550000       1.61210000      -0.06140000
H       -0.16820000       1.51630000      -1.25450000
H       -0.52780000       1.92190000       0.44370000
H       -1.98600000      -0.01280000       0.58310000
H       -1.62600000      -0.44220000      -1.09900000
H       -0.48810000      -2.53480000      -0.29630000
H       -0.94220000      -2.14690000       1.35690000
H       -3.99700000      -1.24250000       0.80110000
H       -4.63510000      -2.88730000       0.81900000
H       -3.47340000      -2.37890000       2.05190000
H       -3.96970000      -3.18310000      -1.61020000
H       -2.22150000      -3.01900000      -2.08840000
H       -1.57590000      -4.70780000      -0.31970000
H       -3.32370000      -4.87100000       0.16310000
