18
Properties=species:S:1:pos:R:3 gdb_36244=T pbc="F F F"
N        0.02250000      -1.13480000       0.15110000
C       -0.01790000       0.01290000       0.02020000
C       -0.03160000       1.46580000      -0.13760000
C        1.37590000       2.07730000      -0.02340000
C        1.54430000       3.59220000       0.03560000
C        1.47660000       4.01950000       1.51370000
C        1.25720000       2.76550000       2.35630000
C        2.16240000       2.04170000       1.32230000
C        2.75180000       3.46060000       0.93170000
H       -0.45830000       1.70650000      -1.11860000
H       -0.70680000       1.89480000       0.60910000
H        2.01010000       1.66700000      -0.81530000
H        1.38670000       4.31030000      -0.75940000
H        1.26740000       5.04890000       1.77500000
H        1.76600000       2.85230000       3.31990000
H        0.24190000       2.38790000       2.52380000
H        2.72970000       1.15640000       1.59860000
H        3.75380000       3.85420000       0.85110000
