21
Properties=species:S:1:pos:R:3 gdb_102500=T pbc="F F F"
C       -0.26980000       1.41200000      -0.05410000
C        0.07550000      -0.09430000      -0.05420000
C        0.91310000      -0.37900000      -1.22250000
C        1.63300000      -0.53640000      -2.17410000
C        0.77600000      -0.59760000       1.24680000
C        0.22990000       0.07230000       2.51140000
O        0.92000000      -0.47960000       3.62440000
C        0.65320000      -2.12980000       1.40040000
O        0.82050000      -2.86650000       0.20300000
H        0.62370000       2.02090000       0.11400000
H       -0.68950000       1.69590000      -1.02240000
H       -1.00670000       1.65200000       0.71670000
H       -0.86150000      -0.65660000      -0.16440000
H        2.24480000      -0.69450000      -3.02760000
H        1.83910000      -0.33200000       1.17610000
H        0.37950000       1.15930000       2.46530000
H       -0.85590000      -0.11160000       2.58690000
H        0.58370000      -0.06380000       4.42330000
H        1.34790000      -2.46200000       2.18160000
H       -0.35970000      -2.37010000       1.74900000
H        1.59150000      -2.52730000      -0.26390000
