19
Properties=species:S:1:pos:R:3 gdb_114930=T pbc="F F F"
C       -0.10070000       1.40720000      -0.11130000
O       -0.03770000       0.02880000       0.16680000
C       -1.28720000      -0.63850000       0.08280000
C       -1.68700000      -0.94800000      -1.38890000
C       -1.29850000      -2.38880000      -1.57230000
C       -0.98430000      -2.98500000      -0.41260000
C       -1.11170000      -2.01850000       0.75280000
C       -0.60620000      -4.33630000      -0.22970000
C       -0.28070000      -5.47810000      -0.02180000
H        0.90430000       1.81140000       0.03330000
H       -0.41470000       1.61980000      -1.14450000
H       -0.79450000       1.92650000       0.56930000
H       -2.05230000      -0.03300000       0.58980000
H       -2.76430000      -0.80470000      -1.55380000
H       -1.17610000      -0.27780000      -2.08950000
H       -1.29520000      -2.88410000      -2.53600000
H       -0.22830000      -2.01080000       1.39730000
H       -1.97220000      -2.28010000       1.38010000
H        0.00660000      -6.48650000       0.14420000
