24
Properties=species:S:1:pos:R:3 gdb_121959=T pbc="F F F"
C       -0.14490000       1.56110000       0.09900000
C       -0.07150000       0.03530000      -0.00080000
C        0.75400000      -0.45050000      -1.19810000
C        0.82670000      -1.97900000      -1.29270000
C        1.55580000      -2.51580000      -2.53760000
C        3.03890000      -2.12800000      -2.57930000
C        1.38530000      -4.05500000      -2.59630000
C        1.91890000      -4.65080000      -3.81930000
N        2.34190000      -5.10410000      -4.79490000
H        0.85330000       1.99990000       0.20670000
H       -0.60030000       1.99510000      -0.79810000
H       -0.74130000       1.87680000       0.96060000
H        0.35820000      -0.37290000       0.92370000
H       -1.08660000      -0.37770000      -0.07010000
H        0.31920000      -0.04950000      -2.12450000
H        1.76420000      -0.02840000      -1.12840000
H        1.31510000      -2.37780000      -0.39160000
H       -0.19690000      -2.37840000      -1.28410000
H        1.06380000      -2.10140000      -3.42760000
H        3.56210000      -2.48990000      -1.68580000
H        3.53340000      -2.55670000      -3.45560000
H        3.16550000      -1.04350000      -2.62440000
H        1.88670000      -4.51890000      -1.73750000
H        0.32430000      -4.31980000      -2.52170000
