22
Properties=species:S:1:pos:R:3 gdb_103197=T pbc="F F F"
C        0.05240000       1.52730000       0.06250000
C        0.01340000      -0.00350000      -0.04610000
C       -1.39940000      -0.59330000      -0.01360000
C       -2.27240000      -0.04130000      -1.14080000
C       -1.60030000      -2.12840000       0.14780000
C       -0.78670000      -2.50580000       1.41110000
C       -1.74210000      -1.57600000       2.16060000
C       -2.78110000      -1.72650000       1.11690000
N       -2.13800000      -0.40120000       1.29600000
H        1.08360000       1.87780000       0.16800000
H       -0.37150000       2.01530000      -0.81960000
H       -0.51220000       1.86410000       0.93710000
H        0.50600000      -0.32780000      -0.97290000
H        0.60140000      -0.41760000       0.77700000
H       -1.78570000      -0.19490000      -2.11000000
H       -3.24490000      -0.54110000      -1.16730000
H       -2.45320000       1.02880000      -1.01280000
H       -1.63900000      -2.79250000      -0.71500000
H       -0.97930000      -3.54260000       1.70130000
H        0.29110000      -2.32300000       1.42390000
H       -1.85870000      -1.43550000       3.22710000
H       -3.84710000      -1.90830000       1.14890000
