19
Properties=species:S:1:pos:R:3 gdb_108124=T pbc="F F F"
C       -0.06980000       1.39780000       0.00720000
O       -0.02200000      -0.01830000      -0.01660000
C        0.58300000      -0.53600000      -1.14200000
C        0.03370000      -0.46690000      -2.58030000
C        1.07490000      -1.59030000      -2.78520000
O        2.32250000      -0.88560000      -2.65400000
C        2.18700000      -0.54040000      -1.26940000
C        2.19660000      -1.91910000      -0.57190000
C        0.84690000      -2.07010000      -1.28790000
H        0.93550000       1.84010000      -0.03070000
H       -0.65760000       1.79570000      -0.83160000
H       -0.54960000       1.68480000       0.94520000
H       -0.99580000      -0.83430000      -2.60950000
H        0.15510000       0.43220000      -3.18870000
H        1.08240000      -2.25680000      -3.64440000
H        2.83790000       0.28960000      -0.99950000
H        3.02500000      -2.58760000      -0.81660000
H        2.05320000      -1.84240000       0.50830000
H        0.09800000      -2.83360000      -1.08690000
