14
Properties=species:S:1:pos:R:3 gdb_5777=T pbc="F F F"
C        0.87050000       0.95990000      -0.11060000
O       -0.02840000       0.09060000      -0.80350000
C       -0.46210000       0.65310000       0.44270000
C       -0.64820000      -0.32090000       1.53480000
N       -1.23750000      -0.10390000       2.69050000
C       -1.14930000      -1.29730000       3.37020000
C       -0.50710000      -2.24090000       2.61140000
N       -0.18450000      -1.59940000       1.43720000
H        1.74740000       0.48090000       0.32110000
H        1.04470000       1.92410000      -0.58530000
H       -1.23600000       1.41460000       0.37430000
H       -1.55590000      -1.40900000       4.36370000
H       -0.26390000      -3.27600000       2.78330000
H        0.22690000      -1.99310000       0.60670000
