16
Properties=species:S:1:pos:R:3 gdb_45982=T pbc="F F F"
O        0.17040000      -0.10020000      -0.67810000
C        0.06310000       1.00830000      -0.19590000
C       -1.29670000       1.60420000       0.19290000
C       -1.67180000       2.82780000      -0.60430000
C       -0.92570000       3.91660000      -0.84060000
C        0.42050000       4.20570000      -0.30600000
O        0.97200000       5.26410000      -0.53060000
C        1.09740000       3.16050000       0.59300000
N        1.13490000       1.81950000       0.03830000
H       -2.03000000       0.81270000       0.04050000
H       -1.29170000       1.83740000       1.26730000
H       -2.66440000       2.79940000      -1.04750000
H       -1.32440000       4.71870000      -1.45500000
H        2.11980000       3.49920000       0.76210000
H        0.59060000       3.16240000       1.56920000
H        2.01860000       1.46030000      -0.28920000
