19
Properties=species:S:1:pos:R:3 gdb_117738=T pbc="F F F"
C        0.11790000       1.44920000       0.14440000
O        0.10240000       0.03940000       0.11750000
C        0.63620000      -0.49320000      -1.07240000
C        0.56410000      -2.04100000      -1.00840000
C        1.31430000      -2.55740000       0.24590000
C       -0.91220000      -2.45460000      -0.86230000
O       -1.49880000      -3.20600000      -1.59170000
C        1.15150000      -2.58300000      -2.22890000
C        1.66440000      -3.00220000      -3.23080000
H        1.14230000       1.84390000       0.06290000
H       -0.48300000       1.87750000      -0.67220000
H       -0.30810000       1.76090000       1.10050000
H        0.07750000      -0.13250000      -1.95070000
H        1.68830000      -0.19260000      -1.20260000
H        0.86940000      -2.13850000       1.15080000
H        1.27640000      -3.64830000       0.29230000
H        2.36290000      -2.25060000       0.20090000
H       -1.40090000      -1.98690000       0.01710000
H        2.10120000      -3.38770000      -4.11880000
