21
Properties=species:S:1:pos:R:3 gdb_110990=T pbc="F F F"
C       -0.03460000       1.57560000       0.12670000
C        0.00110000       0.04410000       0.20270000
C       -1.38420000      -0.57710000       0.05410000
C       -2.02450000      -0.72690000      -1.38810000
C       -1.14610000      -2.01370000      -1.55370000
C       -1.49990000      -2.14070000      -0.02740000
O       -0.77310000      -2.90760000       0.87930000
C       -3.03050000      -2.29200000      -0.11910000
C       -3.37040000      -1.36150000      -1.01480000
H        0.96330000       2.00170000       0.26910000
H       -0.40710000       1.91960000      -0.84440000
H       -0.68960000       1.99530000       0.89810000
H        0.69820000      -0.34090000      -0.54830000
H        0.40520000      -0.26590000       1.17450000
H       -2.06310000      -0.13010000       0.78780000
H       -2.00660000       0.08080000      -2.11740000
H       -1.52630000      -2.78860000      -2.22370000
H       -0.08910000      -1.81810000      -1.74570000
H       -0.92690000      -3.83850000       0.68650000
H       -3.63360000      -2.98350000       0.45350000
H       -4.34260000      -1.07950000      -1.39440000
