20
Properties=species:S:1:pos:R:3 gdb_80459=T pbc="F F F"
C       -0.16440000       1.50470000       0.05560000
C       -0.00960000       0.00550000      -0.07700000
C        0.66480000      -0.71780000      -1.20830000
N        1.21690000      -0.74710000       0.16750000
C        2.47170000       0.05560000       0.16530000
C        2.69750000       0.67620000      -1.23140000
C        4.08040000       0.41410000      -1.83820000
C        1.58980000       0.04930000      -2.09990000
O        1.53400000       0.10160000      -3.30370000
H        0.62870000       2.08160000      -0.42080000
H       -1.11320000       1.81290000      -0.39470000
H       -0.19710000       1.78530000       1.11430000
H       -0.87420000      -0.52850000       0.31690000
H        0.22130000      -1.62110000      -1.61550000
H        2.43080000       0.80020000       0.96550000
H        3.28450000      -0.63680000       0.40650000
H        2.53040000       1.76060000      -1.22680000
H        4.31350000      -0.65590000      -1.83420000
H        4.10330000       0.76100000      -2.87450000
H        4.86120000       0.93320000      -1.27470000
