15
Properties=species:S:1:pos:R:3 gdb_19540=T pbc="F F F"
C       -0.03040000      -1.19440000       0.00110000
C       -0.03210000       0.01000000       0.00450000
C       -0.03350000       1.41660000       0.00910000
C       -0.77560000       2.48250000       0.78970000
C        0.56490000       3.07730000       1.17880000
N        1.20170000       2.37680000      -0.00540000
C        0.53140000       3.08490000      -1.16640000
C       -0.79750000       2.48750000      -0.74300000
H       -0.02520000      -2.25600000      -0.00210000
H       -1.68050000       2.35090000       1.36920000
H        0.69320000       4.16540000       1.18110000
H        0.96160000       2.65390000       2.10440000
H        0.65970000       4.17300000      -1.16520000
H        0.90140000       2.66760000      -2.10570000
H       -1.71860000       2.35970000      -1.29720000
