18
Properties=species:S:1:pos:R:3 gdb_16702=T pbc="F F F"
C       -0.17040000       1.51940000       0.01940000
C        0.06990000       0.01090000       0.04150000
C        1.00010000      -0.55410000      -1.09020000
C        2.02100000      -1.26270000      -0.18680000
O        1.16370000      -1.91040000       0.82060000
C        0.88730000      -0.52480000       1.23390000
C        2.36960000      -0.20870000       0.89570000
O        3.29600000      -0.62620000       1.85790000
H        0.76740000       2.08450000       0.02450000
H       -0.72480000       1.81080000      -0.87840000
H       -0.75660000       1.83910000       0.88790000
H       -0.89310000      -0.50860000       0.02730000
H        0.48730000      -1.25290000      -1.75390000
H        1.45600000       0.23350000      -1.69890000
H        2.77020000      -1.92320000      -0.62430000
H        0.48460000      -0.43420000       2.24380000
H        2.65070000       0.79960000       0.58440000
H        3.02510000      -1.51770000       2.11540000
