18
Properties=species:S:1:pos:R:3 gdb_34306=T pbc="F F F"
N        0.01610000      -1.09350000      -0.02220000
C       -0.00600000       0.06120000      -0.01760000
C       -0.00130000       1.51760000       0.04530000
C       -0.81000000       2.12180000       1.22870000
C       -1.15220000       3.52740000       0.65410000
C       -0.47100000       3.46150000      -0.73040000
C        1.06150000       3.57220000      -0.57460000
C        1.41150000       2.16700000      -0.00380000
O       -0.64980000       2.08330000      -1.10280000
H       -1.70800000       1.53010000       1.41230000
H       -0.22470000       2.15110000       2.14990000
H       -2.23120000       3.65410000       0.54670000
H       -0.77220000       4.34670000       1.26900000
H       -0.90990000       4.09760000      -1.49810000
H        1.53660000       3.72990000      -1.54470000
H        1.35710000       4.39000000       0.08690000
H        1.88210000       2.19430000       0.98090000
H        2.06050000       1.60630000      -0.67810000
