19
Properties=species:S:1:pos:R:3 gdb_32323=T pbc="F F F"
C       -0.13860000       1.55480000       0.02910000
C        0.03760000       0.02470000       0.01250000
C        0.75490000      -0.49870000      -1.18840000
C        2.03440000      -0.91550000      -1.31350000
N        2.23690000      -1.27610000      -2.64400000
C        1.07970000      -1.10950000      -3.38360000
O        0.89010000      -1.34590000      -4.56410000
N        0.16550000      -0.60880000      -2.45660000
C       -1.20890000      -0.35560000      -2.82450000
H        0.83400000       2.05400000      -0.00960000
H       -0.72540000       1.90430000      -0.82550000
H       -0.65350000       1.87360000       0.94070000
H        0.60480000      -0.28170000       0.89780000
H       -0.94540000      -0.45570000       0.10090000
H        2.81470000      -0.97840000      -0.57490000
H        3.07520000      -1.65160000      -3.04890000
H       -1.30860000      -0.64420000      -3.87260000
H       -1.90210000      -0.95090000      -2.22050000
H       -1.47080000       0.70260000      -2.72050000
