20
Properties=species:S:1:pos:R:3 gdb_15136=T pbc="F F F"
O       -0.35880000       0.10120000      -0.14700000
C       -0.03680000       1.25290000      -0.00730000
C        1.35670000       1.79970000      -0.20950000
C        1.38220000       2.92900000      -1.25450000
C        2.76710000       3.57300000      -1.40390000
C        2.79730000       4.67560000      -2.44080000
C        2.38470000       6.08030000      -2.07460000
C        3.83200000       5.76860000      -2.37010000
H       -0.78930000       2.02420000       0.28570000
H        1.69850000       2.19910000       0.75720000
H        2.01940000       0.97510000      -0.48890000
H        1.05840000       2.53000000      -2.22430000
H        0.65180000       3.70140000      -0.98100000
H        3.08460000       3.97950000      -0.43380000
H        3.50120000       2.79870000      -1.66480000
H        2.52300000       4.35150000      -3.44230000
H        1.82430000       6.66420000      -2.79630000
H        2.11180000       6.27440000      -1.04190000
H        4.52660000       5.75430000      -1.53630000
H        4.26040000       6.13670000      -3.29570000
