19
Properties=species:S:1:pos:R:3 gdb_116222=T pbc="F F F"
C        0.37570000       1.34090000       0.10680000
O        0.38140000      -0.07650000       0.07170000
C        0.42820000      -0.59930000      -1.23150000
O        1.63940000      -0.30470000      -1.88900000
C        2.58320000      -1.32190000      -1.53290000
C        1.76830000      -2.62310000      -1.51740000
C        0.37720000      -2.12750000      -1.13710000
C       -0.57660000      -2.82330000      -0.27420000
O       -0.76030000      -2.78010000      -1.69590000
H        1.28130000       1.75730000      -0.34870000
H       -0.50120000       1.74750000      -0.41930000
H        0.32790000       1.63390000       1.15770000
H       -0.38310000      -0.18410000      -1.84460000
H        3.38100000      -1.30660000      -2.27800000
H        3.01690000      -1.11160000      -0.54630000
H        1.72280000      -3.06830000      -2.51580000
H        2.16390000      -3.36830000      -0.82390000
H       -0.31610000      -3.79970000       0.13270000
H       -1.28900000      -2.24590000       0.31100000
