21
Properties=species:S:1:pos:R:3 gdb_61231=T pbc="F F F"
C       -0.26440000       1.42600000       0.09620000
C        0.02730000      -0.06900000      -0.07680000
C        0.79330000      -0.36570000      -1.39300000
C        0.08450000       0.05890000      -2.59410000
C       -0.51810000       0.40800000      -3.57460000
C        0.81540000      -0.61140000       1.10240000
C        0.09830000      -1.08530000       2.35240000
C        0.78890000      -2.07290000       1.44430000
O        0.02700000      -2.89730000       0.60800000
H        0.66650000       2.00250000       0.16110000
H       -0.83870000       1.81250000      -0.74990000
H       -0.83280000       1.60790000       1.01350000
H       -0.92190000      -0.61160000      -0.13240000
H        1.77590000       0.12550000      -1.35750000
H        0.98320000      -1.44360000      -1.44520000
H       -1.04030000       0.71220000      -4.44730000
H        1.77030000      -0.11360000       1.26150000
H        0.52700000      -0.87590000       3.32640000
H       -0.98700000      -1.07720000       2.32110000
H        1.71460000      -2.52430000       1.80150000
H       -0.40380000      -3.56330000       1.15350000
