14
Properties=species:S:1:pos:R:3 gdb_51297=T pbc="F F F"
O        0.08970000      -0.02170000       0.07830000
C       -0.00100000       1.16090000       0.00980000
O        1.12710000       1.95440000       0.10120000
C        0.97860000       3.30560000       0.09290000
N       -0.11640000       3.93520000       0.22500000
C        0.16740000       5.37590000       0.08780000
C        1.68010000       5.51130000      -0.05070000
O        2.38450000       4.99410000       1.08000000
C        2.21260000       4.13920000      -0.06270000
H       -0.91480000       1.75130000      -0.13300000
H       -0.35460000       5.76470000      -0.79400000
H       -0.21430000       5.91190000       0.96290000
H        2.14940000       6.34280000      -0.56750000
H        3.11030000       3.78770000      -0.55860000
