21
Properties=species:S:1:pos:R:3 gdb_94883=T pbc="F F F"
O       -0.02940000       1.46550000      -0.00510000
C        0.03480000       0.04460000      -0.01670000
C        0.69120000      -0.55210000       1.27370000
C        0.05200000      -1.95190000       1.49360000
C       -1.32450000      -1.81030000       0.86990000
C       -2.15870000      -0.60680000       1.20340000
C       -1.33030000      -0.59240000      -0.05260000
C       -2.00860000      -1.41280000      -1.16540000
C       -2.00660000      -2.66420000      -0.21680000
H        0.87220000       1.80320000       0.00270000
H        0.59640000      -0.29670000      -0.90230000
H        1.78230000      -0.59820000       1.19800000
H        0.45990000       0.12060000       2.10630000
H        0.61750000      -2.71830000       0.94990000
H        0.05580000      -2.24300000       2.55030000
H       -3.23970000      -0.66840000       1.11420000
H       -1.82070000       0.02460000       2.01640000
H       -2.98260000      -1.04960000      -1.50860000
H       -1.36730000      -1.55280000      -2.03940000
H       -1.36610000      -3.46780000      -0.58920000
H       -2.97980000      -3.09310000       0.04350000
