19
Properties=species:S:1:pos:R:3 gdb_79049=T pbc="F F F"
O        0.30580000       1.42910000      -0.18010000
C        0.07350000       0.05160000      -0.07000000
C        0.08890000      -0.64580000       1.32990000
C       -1.37530000      -0.19320000       1.64060000
C       -2.01490000      -1.59100000       1.76570000
C       -3.28170000      -1.55700000       0.86600000
C       -2.78290000      -0.73870000      -0.39070000
C       -1.36760000      -0.49880000       0.09830000
C       -0.82340000      -1.78870000       0.80420000
H       -0.20670000       1.87720000       0.50180000
H        0.68060000      -0.42170000      -0.84840000
H        0.92310000      -0.72740000       2.02740000
H       -1.70450000       0.74180000       2.10110000
H       -2.09700000      -2.11970000       2.71800000
H       -3.61030000      -2.56410000       0.58990000
H       -4.12270000      -1.06500000       1.36540000
H       -2.83130000      -1.32430000      -1.31320000
H       -3.35530000       0.18070000      -0.54320000
H       -0.50570000      -2.68910000       0.27470000
