18
Properties=species:S:1:pos:R:3 gdb_128847=T pbc="F F F"
C       -0.02240000       1.34050000      -0.15920000
O       -0.01000000      -0.04310000       0.09940000
C       -1.28280000      -0.63410000      -0.01530000
C       -1.14180000      -2.12140000       0.31670000
C       -2.43610000      -2.85990000       0.16990000
N       -3.08310000      -3.27620000       1.23460000
O       -4.23660000      -3.89870000       0.76440000
C       -4.24600000      -3.83590000      -0.57360000
C       -3.14190000      -3.19340000      -1.02650000
H        1.00160000       1.70380000      -0.04370000
H       -0.36510000       1.56230000      -1.18260000
H       -0.67380000       1.88230000       0.54450000
H       -2.00050000      -0.16100000       0.67540000
H       -1.68140000      -0.50200000      -1.03630000
H       -0.38520000      -2.55400000      -0.34680000
H       -0.78270000      -2.22680000       1.34330000
H       -5.09440000      -4.29200000      -1.06020000
H       -2.86100000      -2.99110000      -2.04670000
