15
Properties=species:S:1:pos:R:3 gdb_50186=T pbc="F F F"
O       -0.13720000      -0.04840000       0.18550000
C       -0.03650000       1.14360000       0.09680000
C        1.26060000       1.89180000      -0.12680000
O        2.36180000       1.11560000      -0.64740000
C        2.59870000       2.10800000      -1.63940000
C        1.44890000       2.23590000      -2.61090000
C        0.60130000       1.15120000      -3.00930000
C       -0.11500000       0.25210000      -3.36040000
C        1.39490000       2.92870000      -1.24750000
H       -0.90880000       1.82720000       0.23150000
H        1.54070000       2.34220000       0.83970000
H        3.62620000       2.36550000      -1.86760000
H        1.66820000       2.95800000      -3.39570000
H       -0.74240000      -0.55530000      -3.64680000
H        1.26010000       3.99620000      -1.14390000
