21
Properties=species:S:1:pos:R:3 gdb_87156=T pbc="F F F"
C       -0.07390000       1.59320000       0.14590000
C       -0.01310000       0.07900000       0.05470000
C        1.04760000      -0.51770000      -0.86330000
C        1.19500000      -0.61560000       0.63530000
O        2.14340000       0.17100000       1.29630000
C       -1.32290000      -0.67880000       0.15070000
C       -2.28020000      -0.35740000       1.32610000
O       -3.30490000       0.11120000       0.42710000
C       -2.51120000      -0.21590000      -0.73060000
H       -0.61020000       1.92240000       1.04150000
H        0.93290000       2.01000000       0.19960000
H       -0.58000000       2.02450000      -0.72360000
H        0.81670000      -1.41540000      -1.42800000
H        1.70340000       0.18200000      -1.37140000
H        1.02860000      -1.59240000       1.09140000
H        3.01700000      -0.15840000       1.06170000
H       -1.12350000      -1.74940000       0.05450000
H       -2.61180000      -1.22720000       1.90760000
H       -1.95080000       0.42390000       2.02120000
H       -2.33100000       0.65880000      -1.36670000
H       -2.97680000      -1.00260000      -1.33810000
