21
Properties=species:S:1:pos:R:3 gdb_117127=T pbc="F F F"
C        0.06820000       1.49180000       0.49230000
C        0.00560000       0.10450000      -0.15100000
C       -1.37300000      -0.54200000      -0.01680000
C       -1.49480000      -1.89160000      -0.69510000
O       -0.65760000      -2.34520000      -1.43800000
C       -2.78000000      -2.69270000      -0.36790000
C       -3.09680000      -3.72940000      -1.44450000
C       -2.56080000      -3.34750000       0.99580000
O       -2.63580000      -2.77180000       2.05030000
H        1.06570000       1.92940000       0.38860000
H       -0.64640000       2.18000000       0.02650000
H       -0.16660000       1.44730000       1.56160000
H        0.26950000       0.16460000      -1.21190000
H        0.75400000      -0.55400000       0.30440000
H       -1.67190000      -0.66350000       1.03300000
H       -2.15010000       0.10310000      -0.45600000
H       -3.59360000      -1.97180000      -0.23140000
H       -3.96000000      -4.33900000      -1.16070000
H       -3.31940000      -3.24360000      -2.39750000
H       -2.23730000      -4.38480000      -1.60440000
H       -2.29560000      -4.42720000       0.94510000
