21
Properties=species:S:1:pos:R:3 gdb_121458=T pbc="F F F"
C        0.33590000       1.69680000      -0.49460000
C        0.80690000       0.47980000      -1.29360000
C        0.30900000      -0.84180000      -0.70130000
N        0.84390000      -1.97300000      -1.45450000
C        0.09370000      -2.92400000      -1.76150000
O       -1.25520000      -3.13690000      -1.50300000
C       -1.27860000      -4.31410000      -2.36530000
C        0.24910000      -4.20440000      -2.58230000
N        0.72890000      -4.17120000      -3.94660000
H       -0.75800000       1.75200000      -0.45860000
H        0.69740000       1.65750000       0.53920000
H        0.70040000       2.62830000      -0.93820000
H        0.45950000       0.55500000      -2.33150000
H        1.90160000       0.45130000      -1.33730000
H        0.66630000      -0.92600000       0.33450000
H       -0.78930000      -0.84910000      -0.66160000
H       -1.65110000      -5.19110000      -1.83160000
H       -1.87410000      -4.13320000      -3.26510000
H        0.80200000      -4.97220000      -2.03380000
H        0.38530000      -3.33780000      -4.41670000
H        1.74150000      -4.09730000      -3.95060000
