15
Properties=species:S:1:pos:R:3 gdb_126493=T pbc="F F F"
C        0.03730000       1.54260000      -0.05980000
C       -0.06800000       0.01910000      -0.05530000
C       -1.46260000      -0.53120000       0.04570000
N       -2.45390000       0.29320000       0.12390000
O       -3.73930000      -0.20300000       0.21730000
N       -4.03130000      -1.53860000       0.23220000
C       -3.05380000      -2.37380000       0.15490000
C       -1.64840000      -1.99370000       0.05200000
O       -0.72930000      -2.79080000      -0.02070000
H        1.08580000       1.84150000      -0.13630000
H       -0.50710000       1.97710000      -0.90230000
H       -0.37780000       1.97350000       0.85500000
H        0.38260000      -0.41410000      -0.95770000
H        0.50910000      -0.41740000       0.77030000
H       -3.32770000      -3.42500000       0.16990000
