18
Properties=species:S:1:pos:R:3 gdb_74762=T pbc="F F F"
C        0.05510000       1.43930000       0.05740000
C        0.01050000      -0.04570000      -0.00360000
C       -0.00650000      -0.91520000      -1.02170000
C       -0.01140000      -2.26550000      -0.28870000
O       -0.97200000      -2.01290000       0.79070000
C        0.00860000      -1.00610000       1.20620000
C        1.09210000      -2.02490000       0.77520000
C        1.92010000      -2.97490000       1.52570000
N        2.52020000      -1.87760000       0.70990000
H        0.95710000       1.78400000       0.57870000
H        0.05240000       1.88190000      -0.94250000
H       -0.80180000       1.84170000       0.61210000
H        0.00090000      -0.74600000      -2.08860000
H       -0.16080000      -3.19950000      -0.82970000
H       -0.11960000      -0.62530000       2.21870000
H        2.06150000      -2.86950000       2.59780000
H        1.98900000      -3.99610000       1.15850000
H        2.89260000      -2.23500000      -0.16650000
