19
Properties=species:S:1:pos:R:3 gdb_15788=T pbc="F F F"
C       -0.11520000       1.61860000       0.19560000
C        0.06500000       0.09380000       0.13590000
C       -1.30780000      -0.60850000       0.11990000
C       -1.22070000      -2.10070000       0.36410000
O       -1.98410000      -2.71440000       1.06740000
N        0.85290000      -0.45380000      -0.97860000
C        0.96400000       0.25390000      -2.24820000
C        2.13710000       0.12210000      -1.33640000
H        0.83970000       2.15010000       0.14300000
H       -0.75900000       1.98300000      -0.61140000
H       -0.58890000       1.89330000       1.14260000
H        0.60100000      -0.21510000       1.04370000
H       -1.98950000      -0.17820000       0.85920000
H       -1.75670000      -0.45730000      -0.87290000
H       -0.38420000      -2.60420000      -0.16400000
H        0.88210000      -0.36380000      -3.13840000
H        0.52830000       1.24520000      -2.34460000
H        2.47180000       1.02610000      -0.83120000
H        2.92790000      -0.59280000      -1.54830000
