20
Properties=species:S:1:pos:R:3 gdb_76088=T pbc="F F F"
C       -0.13660000       1.54600000      -0.07310000
C        0.02520000       0.04760000       0.04970000
C        1.37320000      -0.63460000      -0.19900000
C        2.53600000       0.16190000      -0.46430000
N        3.47190000       0.81000000      -0.67530000
C        0.74090000      -0.60970000       1.19750000
C        1.36540000       0.15010000       2.32300000
C        0.71210000       0.13630000       3.68520000
C        2.00730000      -0.60220000       3.46370000
H        0.76180000       2.08580000       0.23330000
H       -0.34840000       1.82540000      -1.10990000
H       -0.96930000       1.89340000       0.54710000
H       -0.81210000      -0.51870000      -0.34970000
H        1.36300000      -1.57950000      -0.73180000
H        0.34070000      -1.57460000       1.50030000
H        1.85630000       1.07470000       2.04030000
H        0.72830000       1.04960000       4.26920000
H       -0.19190000      -0.45150000       3.80760000
H        1.97360000      -1.68650000       3.43640000
H        2.91650000      -0.19830000       3.89380000
