19
Properties=species:S:1:pos:R:3 gdb_48627=T pbc="F F F"
O       -0.15360000       0.01480000      -0.20980000
C        0.01510000       1.15090000       0.15820000
C        1.31390000       1.89190000       0.06520000
C        2.59190000       1.17150000      -0.43760000
C        2.99080000       2.55490000      -1.02410000
C        1.47850000       2.87160000      -1.14940000
C        3.57670000       3.41440000       0.10120000
O        3.00970000       3.08150000       1.36540000
C        1.65000000       2.68420000       1.34570000
H       -0.83240000       1.74320000       0.57920000
H        3.24700000       0.72360000       0.31200000
H        2.34490000       0.44090000      -1.20930000
H        3.60870000       2.60400000      -1.92330000
H        1.03800000       2.46200000      -2.06150000
H        1.15420000       3.90790000      -1.01070000
H        4.65280000       3.24150000       0.21060000
H        3.42680000       4.48320000      -0.12400000
H        0.97730000       3.55420000       1.43100000
H        1.51180000       2.06470000       2.23970000
