16
Properties=species:S:1:pos:R:3 gdb_79173=T pbc="F F F"
O       -0.00760000       1.44500000       0.05820000
C        0.01480000       0.03780000       0.06550000
C       -1.38590000      -0.54090000      -0.05080000
C       -1.57950000      -1.26040000      -1.33320000
C       -0.12460000      -1.70350000      -1.66380000
C       -0.29950000      -2.66800000      -0.45610000
N       -1.58970000      -2.01810000      -0.03480000
C        0.68450000      -0.50350000      -1.21910000
O        1.59280000       0.05490000      -1.77820000
H        0.75450000       1.71990000      -0.47130000
H        0.54400000      -0.33940000       0.95610000
H       -2.20090000       0.00130000       0.41280000
H       -2.42710000      -1.20050000      -2.00430000
H        0.13910000      -2.10990000      -2.63670000
H       -0.52410000      -3.68540000      -0.78030000
H        0.48660000      -2.70030000       0.30540000
