13
Properties=species:S:1:pos:R:3 gdb_21608=T pbc="F F F"
N       -0.01640000       1.34240000       0.16610000
C        0.03080000      -0.02360000       0.05440000
N       -1.15510000      -0.68870000       0.05480000
H       -2.03680000      -0.20320000       0.15490000
C       -1.21960000      -2.08280000      -0.00440000
N       -2.36780000      -2.64470000      -0.00670000
C        0.12030000      -2.66120000      -0.03870000
N        1.22050000      -1.98240000      -0.02400000
N        1.20080000      -0.61060000       0.00190000
H        0.88490000       1.77010000       0.00730000
H       -0.78550000       1.81960000      -0.28010000
H       -2.26460000      -3.65730000      -0.04560000
H        0.20710000      -3.74420000      -0.07000000
