21
Properties=species:S:1:pos:R:3 gdb_89358=T pbc="F F F"
C       -0.09060000       1.53430000       0.03030000
C        0.05190000       0.01370000       0.04640000
C        1.00020000      -0.56400000      -1.07040000
C        2.03740000      -1.32770000      -0.21220000
C        3.18660000      -2.02770000      -0.89100000
C        1.09360000      -2.01180000       0.84490000
C        0.77120000      -0.55000000       1.29800000
C        2.24280000      -0.30400000       0.92470000
O        3.18180000       0.26480000       1.40050000
H        0.88470000       2.02660000       0.11480000
H       -0.55700000       1.87340000      -0.90080000
H       -0.71230000       1.88320000       0.86170000
H       -0.94190000      -0.44010000      -0.03190000
H        0.47840000      -1.23530000      -1.75950000
H        1.46700000       0.22860000      -1.66450000
H        3.77770000      -1.31830000      -1.47990000
H        3.85700000      -2.48900000      -0.15900000
H        2.83240000      -2.81110000      -1.57010000
H        0.25560000      -2.58680000       0.44160000
H        1.63690000      -2.59210000       1.59360000
H        0.36570000      -0.30890000       2.27880000
