18
Properties=species:S:1:pos:R:3 gdb_42976=T pbc="F F F"
O        0.11970000       0.09850000       0.29280000
C        0.02050000       1.29290000       0.11890000
C       -1.21580000       2.07970000      -0.13590000
C       -1.38480000       3.31230000       0.75170000
C       -0.77300000       3.46630000      -0.59930000
C        0.75580000       3.50540000      -0.66740000
C        1.20230000       2.23600000       0.04410000
C        2.22260000       2.13390000       1.13260000
N        2.51690000       1.64260000      -0.21050000
H       -2.09700000       1.56980000      -0.50230000
H       -2.40680000       3.64600000       0.89130000
H       -0.75900000       3.40500000       1.63360000
H       -1.33730000       3.97890000      -1.36930000
H        1.09000000       3.47150000      -1.70970000
H        1.16670000       4.41550000      -0.21890000
H        2.76080000       3.03140000       1.42650000
H        2.04280000       1.41180000       1.92510000
H        2.38770000       0.62870000      -0.22310000
