19
Properties=species:S:1:pos:R:3 gdb_80263=T pbc="F F F"
C       -0.45370000       1.31700000       0.35820000
C       -0.07200000      -0.11540000       0.06690000
C        0.55100000      -0.57760000      -1.21920000
C        0.98900000       0.37870000      -2.31470000
C        1.99130000       1.47140000      -1.92740000
O        2.14930000       2.44330000      -2.64150000
C        2.78740000       1.26370000      -0.70590000
C        2.51610000       0.28680000       0.17550000
C        1.37720000      -0.63560000       0.05670000
H       -1.40190000       1.56380000      -0.13200000
H       -0.58630000       1.47060000       1.43440000
H        0.29160000       2.03690000       0.01380000
H       -0.75890000      -0.83600000       0.50410000
H        0.19530000      -1.53440000      -1.59030000
H        1.48440000      -0.19520000      -3.10910000
H        0.13550000       0.87010000      -2.79350000
H        3.61360000       1.95190000      -0.56070000
H        3.15620000       0.16380000       1.04690000
H        1.52050000      -1.60220000       0.52870000
