23
Properties=species:S:1:pos:R:3 gdb_107057=T pbc="F F F"
C        0.06450000       1.47510000       0.34310000
C       -0.04880000       0.03110000      -0.16300000
C       -1.45990000      -0.51680000      -0.12120000
C       -1.99380000      -1.09870000       1.16630000
C       -1.74770000      -2.00120000      -0.02030000
C       -2.93660000      -2.33050000      -0.89870000
O       -3.77410000      -3.29270000      -0.26930000
C       -3.63000000      -0.96860000      -1.14650000
C       -2.50600000       0.08380000      -1.06400000
H        1.10190000       1.82280000       0.31330000
H       -0.53210000       2.16130000      -0.26700000
H       -0.28960000       1.55680000       1.37610000
H        0.33110000      -0.02500000      -1.19270000
H        0.60350000      -0.61440000       0.43830000
H       -1.29330000      -1.18490000       1.99060000
H       -3.01330000      -0.89990000       1.47860000
H       -0.94250000      -2.72540000       0.04080000
H       -2.55960000      -2.73410000      -1.85300000
H       -4.48540000      -3.50990000      -0.88030000
H       -4.16890000      -0.93780000      -2.09820000
H       -4.36950000      -0.81830000      -0.35350000
H       -2.87660000       1.06110000      -0.73540000
H       -2.04680000       0.23320000      -2.05000000
