19
Properties=species:S:1:pos:R:3 gdb_103224=T pbc="F F F"
O       -0.10950000       1.50600000      -0.07070000
C        0.03110000       0.09350000       0.10070000
C       -1.37320000      -0.48480000       0.03340000
O       -2.19190000       0.15540000       0.98510000
C       -2.00520000      -0.75300000      -1.35640000
C       -1.20510000      -2.09130000      -1.53620000
C       -2.48080000      -2.89520000      -1.85220000
C       -2.91810000      -1.88920000      -0.77140000
C       -1.55060000      -2.00850000      -0.00590000
H        0.70930000       1.93160000       0.19700000
H        0.67610000      -0.33650000      -0.67720000
H        0.46840000      -0.13820000       1.08310000
H       -1.95410000       1.09080000       0.94420000
H       -2.27440000      -0.04880000      -2.14500000
H       -0.20850000      -2.19650000      -1.96700000
H       -2.90960000      -2.76480000      -2.85130000
H       -2.47850000      -3.95360000      -1.57120000
H       -3.89310000      -1.74830000      -0.30900000
H       -1.30060000      -2.74670000       0.75860000
