18
Properties=species:S:1:pos:R:3 gdb_117809=T pbc="F F F"
O       -0.10520000       1.49410000       0.07250000
C        0.02210000       0.08150000       0.12080000
C       -1.38630000      -0.48810000      -0.01860000
C       -1.43750000      -2.01740000       0.01500000
O       -0.87140000      -2.46640000       1.22940000
C       -2.88860000      -2.54470000      -0.08400000
O       -2.91430000      -3.94340000       0.14050000
C       -0.68390000      -2.60470000      -1.13100000
N       -0.14800000      -3.11780000      -2.01790000
H        0.76810000       1.87760000       0.19340000
H        0.65850000      -0.29250000      -0.69600000
H        0.46170000      -0.25620000       1.06870000
H       -2.00260000      -0.11670000       0.80640000
H       -1.82690000      -0.12790000      -0.95440000
H       -1.19420000      -3.37190000       1.35110000
H       -3.46560000      -2.09070000       0.72630000
H       -3.33980000      -2.26680000      -1.04460000
H       -2.57740000      -4.38200000      -0.65020000
