20
Properties=species:S:1:pos:R:3 gdb_26936=T pbc="F F F"
C        0.19380000       1.51220000       0.10900000
C        0.07330000       0.02920000      -0.02590000
C       -0.12020000      -0.78450000      -1.12840000
C       -0.15550000      -2.13380000      -0.65120000
C        0.01500000      -2.10350000       0.70950000
N        0.15280000      -0.79050000       1.07980000
C       -0.26290000      -0.34000000      -2.53310000
C        0.29770000      -1.16270000      -3.67610000
C       -1.19160000      -1.05850000      -3.49180000
H        1.16040000       1.81220000       0.53440000
H        0.10640000       1.99430000      -0.86670000
H       -0.58960000       1.93460000       0.75170000
H       -0.29160000      -3.02400000      -1.24690000
H        0.04990000      -2.89610000       1.43940000
H        0.29200000      -0.46620000       2.02070000
H       -0.20480000       0.73510000      -2.67160000
H        0.75360000      -0.63960000      -4.51000000
H        0.78060000      -2.09970000      -3.42030000
H       -1.72180000      -1.92460000      -3.11050000
H       -1.76000000      -0.46370000      -4.19890000
