15
Properties=species:S:1:pos:R:3 gdb_84417=T pbc="F F F"
N       -0.01580000       1.49080000      -0.25840000
C       -0.00630000       0.04470000      -0.05700000
C        0.61570000      -0.51160000       1.20820000
C       -0.27010000      -1.26040000       1.86470000
N       -1.50890000      -1.30590000       1.18380000
C       -2.63290000      -1.99210000       1.61850000
O       -2.65810000      -2.64890000       2.63070000
C       -1.45100000      -0.51330000       0.01250000
O       -2.36400000      -0.33630000      -0.74590000
H       -0.30050000       1.96010000       0.59670000
H        0.92220000       1.81480000      -0.47060000
H        0.45420000      -0.40230000      -0.94870000
H        1.63270000      -0.32110000       1.51930000
H       -0.19050000      -1.81030000       2.79010000
H       -3.47820000      -1.85930000       0.92660000
