15
Properties=species:S:1:pos:R:3 gdb_27378=T pbc="F F F"
N        0.14740000       1.34090000       0.16120000
C       -0.03800000      -0.02000000       0.04010000
C       -1.18870000      -0.71000000       0.01990000
C       -1.16520000      -2.16490000      -0.01000000
N       -2.25000000      -2.84520000      -0.01730000
N        0.11200000      -2.76850000      -0.03110000
C        1.14670000      -2.02580000      -0.04150000
N        2.41840000      -2.51220000      -0.14100000
O        1.17920000      -0.65440000      -0.00010000
H        0.97130000       1.68820000      -0.31050000
H       -0.67700000       1.88710000      -0.04130000
H       -2.14260000      -0.20110000       0.03600000
H       -2.00920000      -3.83790000      -0.04340000
H        2.50210000      -3.49920000       0.04250000
H        3.15950000      -1.92620000       0.20840000
