19
Properties=species:S:1:pos:R:3 gdb_7632=T pbc="F F F"
C       -0.02950000       1.57010000       0.07460000
C        0.06140000       0.03710000       0.02090000
C        0.97360000      -0.49260000       1.13480000
C       -1.34690000      -0.57380000       0.03050000
C       -1.52150000      -2.12290000       0.07720000
C       -2.32070000      -1.88550000       1.38130000
O       -2.94320000      -2.56130000       2.15470000
N       -2.07080000      -0.53350000       1.31530000
H        0.96150000       2.02630000      -0.00980000
H       -0.65170000       1.96580000      -0.73540000
H       -0.46290000       1.90390000       1.02510000
H        0.50010000      -0.24020000      -0.94840000
H        0.55550000      -0.27310000       2.12210000
H        1.12480000      -1.57380000       1.06920000
H        1.95890000      -0.02050000       1.07440000
H       -1.93110000      -0.12370000      -0.78270000
H       -2.11880000      -2.54780000      -0.73140000
H       -0.60890000      -2.70660000       0.20150000
H       -2.48550000       0.23050000       1.82900000
