16
Properties=species:S:1:pos:R:3 gdb_13174=T pbc="F F F"
N       -0.18900000       1.39310000       0.08420000
C        0.03320000      -0.05000000      -0.00790000
C        0.70010000      -0.46690000      -1.26290000
N        1.23530000      -0.75180000      -2.24760000
C        0.83400000      -0.53640000       1.20470000
C        0.04800000      -0.49750000       2.53030000
O       -0.04460000      -1.93790000       2.56260000
C        0.84000000      -2.06350000       1.43070000
H        0.69260000       1.88720000      -0.02540000
H       -0.79160000       1.70700000      -0.67060000
H       -0.94890000      -0.53870000       0.01540000
H        1.81430000      -0.05390000       1.21640000
H        0.61000000      -0.10320000       3.38590000
H       -0.93290000      -0.01210000       2.49110000
H        0.40990000      -2.67770000       0.63020000
H        1.81460000      -2.48080000       1.71240000
