17
Properties=species:S:1:pos:R:3 gdb_11282=T pbc="F F F"
C        0.28720000       1.69820000      -0.00260000
C        0.09970000       0.19810000       0.12630000
C        0.33890000      -0.61290000      -1.17270000
C        1.10690000      -1.87940000      -0.68140000
C        1.09000000      -1.70650000       0.86620000
O        1.04800000      -0.31400000       1.06260000
C        0.53060000      -3.14220000      -1.12440000
N        0.06750000      -4.14680000      -1.46060000
H        1.29480000       1.92700000      -0.36320000
H       -0.43920000       2.11370000      -0.70740000
H        0.14670000       2.18700000       0.96510000
H       -0.91520000      -0.01920000       0.49860000
H       -0.59700000      -0.86920000      -1.67180000
H        0.95430000      -0.05070000      -1.87890000
H        2.14210000      -1.83950000      -1.03120000
H        0.20280000      -2.20300000       1.28880000
H        1.98310000      -2.10410000       1.35180000
