17
Properties=species:S:1:pos:R:3 gdb_3175=T pbc="F F F"
C       -0.13870000       1.44920000       0.01310000
C        1.25210000       0.85540000      -0.01240000
C        0.05450000      -0.04680000       0.01340000
C       -0.34580000      -0.89140000       1.21380000
C       -1.58120000      -1.60340000       0.65610000
O       -1.27600000      -1.87160000      -0.70920000
C       -0.35690000      -0.89140000      -1.19210000
H       -0.47430000       1.92530000       0.92900000
H       -0.50810000       1.91730000      -0.89400000
H        1.81920000       0.92690000      -0.93550000
H        1.85850000       0.92940000       0.88470000
H        0.43450000      -1.62280000       1.45580000
H       -0.55410000      -0.30040000       2.10950000
H       -1.80480000      -2.55680000       1.14400000
H       -2.47010000      -0.95700000       0.73740000
H       -0.82680000      -0.28270000      -1.97760000
H        0.49820000      -1.41730000      -1.63850000
