23
Properties=species:S:1:pos:R:3 gdb_118186=T pbc="F F F"
C       -0.06100000       1.57950000       0.03270000
C       -0.02700000       0.04950000      -0.00850000
C        0.72160000      -0.49880000      -1.22730000
C        0.79480000      -2.03120000      -1.28970000
C        1.38470000      -2.52960000      -2.61560000
N        1.54290000      -2.54320000      -0.14060000
C        1.27970000      -3.79830000       0.36470000
N        2.21290000      -4.23090000       1.30540000
O        0.33370000      -4.48250000       0.01960000
H        0.95110000       1.99850000       0.06980000
H       -0.55380000       1.99120000      -0.85540000
H       -0.60300000       1.94330000       0.91130000
H        0.43980000      -0.33800000       0.90410000
H       -1.05260000      -0.34170000      -0.01280000
H        0.23770000      -0.14280000      -2.14560000
H        1.74300000      -0.08810000      -1.25130000
H       -0.21120000      -2.44730000      -1.18220000
H        2.40810000      -2.16070000      -2.75550000
H        1.40420000      -3.62220000      -2.63240000
H        0.78530000      -2.18370000      -3.46410000
H        2.48970000      -2.20530000      -0.04490000
H        2.63740000      -3.52560000       1.88990000
H        1.88240000      -5.03370000       1.82000000
