16
Properties=species:S:1:pos:R:3 gdb_35120=T pbc="F F F"
C        0.70570000      -0.54470000       1.07390000
C        0.25020000       0.36230000       0.42970000
C       -0.31410000       1.46800000      -0.35740000
C       -1.36430000       2.23130000       0.44600000
C       -1.05430000       3.09540000       1.40730000
C        0.37630000       3.36700000       1.78190000
O        1.14610000       3.95520000       0.71450000
C        1.28070000       3.30500000      -0.46110000
N        0.74770000       2.27810000      -0.97010000
H        1.11200000      -1.34890000       1.63620000
H       -0.83370000       1.00950000      -1.20790000
H       -2.40150000       2.03730000       0.18810000
H       -1.83390000       3.62720000       1.94420000
H        0.44840000       4.09410000       2.59200000
H        0.87450000       2.44350000       2.10190000
H        2.02000000       3.84390000      -1.05560000
