17
Properties=species:S:1:pos:R:3 gdb_77742=T pbc="F F F"
C       -0.02670000       1.54240000       0.02560000
C        0.02670000       0.04260000      -0.00140000
C       -0.84050000      -0.83200000       0.81570000
O       -1.58520000      -1.85460000       0.19640000
C        0.65570000      -0.95750000       1.04750000
C        1.22130000      -1.76090000      -0.08870000
O        1.94450000      -2.71420000      -0.14550000
C        0.63180000      -0.78880000      -1.15860000
O       -0.18840000      -1.23020000      -2.19510000
H        0.95740000       1.97730000      -0.17780000
H       -0.71890000       1.91140000      -0.73950000
H       -0.37000000       1.91710000       0.99500000
H       -1.37250000      -0.33560000       1.62780000
H       -1.56660000      -2.63550000       0.76090000
H        1.10110000      -0.78350000       2.01970000
H        1.47220000      -0.25160000      -1.61610000
H       -0.90450000      -1.72800000      -1.77810000
