21
Properties=species:S:1:pos:R:3 gdb_101108=T pbc="F F F"
O        0.06380000       1.41410000      -0.08030000
C        0.09230000       0.01380000       0.08880000
C       -1.32640000      -0.56450000       0.05600000
O       -1.99370000      -0.08620000      -1.12110000
C       -1.37110000      -2.06850000       0.14220000
C       -0.79410000      -2.98110000       1.27080000
C       -1.44370000      -3.94750000       0.24000000
C       -2.64660000      -2.96470000       0.17780000
C       -0.77600000      -3.09980000      -0.87850000
H       -0.61010000       1.57100000      -0.75540000
H        0.69950000      -0.47490000      -0.69500000
H        0.56960000      -0.19620000       1.05200000
H       -1.89500000      -0.13170000       0.88820000
H       -1.64870000      -0.58760000      -1.86990000
H        0.29480000      -3.02110000       1.36440000
H       -1.27740000      -2.90760000       2.24910000
H       -1.48410000      -5.03530000       0.29560000
H       -3.26800000      -2.88880000       1.07450000
H       -3.25510000      -2.98320000      -0.73000000
H       -1.24540000      -3.14610000      -1.86660000
H        0.31400000      -3.15210000      -0.95130000
