19
Properties=species:S:1:pos:R:3 gdb_81505=T pbc="F F F"
C       -0.21700000       1.55370000       0.79080000
C       -0.13140000       0.06760000       0.49400000
C        1.05640000      -0.45270000      -0.36450000
O        1.96650000      -0.13590000       0.75650000
C        0.80440000      -0.81350000       1.36950000
C        0.88970000      -1.89810000       0.23340000
C       -0.30050000      -2.79300000      -0.12570000
C        2.11420000      -2.68630000       0.24740000
C        3.06780000      -3.41860000       0.23380000
H        0.76970000       1.96000000       1.01870000
H       -0.63030000       2.09540000      -0.06690000
H       -0.87890000       1.73950000       1.64370000
H       -1.11240000      -0.35150000       0.26430000
H        1.37770000      -0.16990000      -1.36820000
H        0.82280000      -0.96450000       2.45000000
H       -1.25120000      -2.25920000      -0.15510000
H       -0.13540000      -3.25150000      -1.10510000
H       -0.38610000      -3.60400000       0.60350000
H        3.93060000      -4.03740000       0.23050000
