16
Properties=species:S:1:pos:R:3 gdb_98172=T pbc="F F F"
C       -0.42260000       1.35640000      -0.53080000
O       -0.35270000      -0.07140000      -0.69350000
C        0.88080000      -0.58320000      -0.82750000
O        1.89770000       0.05270000      -0.81340000
C        0.78690000      -2.12250000      -1.00890000
C        2.12780000      -2.78140000      -0.68940000
O       -0.18770000      -2.67110000      -0.14700000
C        0.41570000      -2.36290000      -2.42790000
N        0.10730000      -2.54430000      -3.52670000
H        0.10390000       1.65900000       0.37700000
H        0.02830000       1.85540000      -1.39110000
H       -1.48320000       1.59340000      -0.45890000
H        2.37100000      -2.59340000       0.35830000
H        2.05070000      -3.85740000      -0.85430000
H        2.91530000      -2.36610000      -1.31830000
H       -0.98780000      -2.13780000      -0.23220000
