17
Properties=species:S:1:pos:R:3 gdb_18199=T pbc="F F F"
N       -0.52440000      -0.90810000      -0.97020000
C       -0.28140000       0.11070000      -0.48080000
C        0.02850000       1.39640000       0.14490000
C       -0.33950000       1.43940000       1.65820000
C        0.59640000       2.51130000       2.25760000
C        1.85010000       2.46840000       1.39520000
C        2.43740000       1.11600000       1.07540000
C        1.50910000       1.78090000       0.09150000
H       -0.54380000       2.16560000      -0.38850000
H       -1.39800000       1.65950000       1.80990000
H       -0.15070000       0.46150000       2.10760000
H        0.13900000       3.50470000       2.18020000
H        0.79290000       2.32800000       3.31900000
H        2.51310000       3.32620000       1.40730000
H        3.48640000       1.08340000       0.80400000
H        2.10060000       0.24000000       1.62010000
H        1.90470000       2.11860000      -0.85890000
