23
Properties=species:S:1:pos:R:3 gdb_59953=T pbc="F F F"
C       -0.99330000       1.08940000      -0.62970000
C       -0.21860000      -0.10160000      -0.06610000
C       -1.14550000      -1.18640000       0.48280000
O        0.57100000      -0.66620000      -1.12010000
C        1.98630000      -0.71500000      -0.97850000
C        2.63250000       0.67490000      -0.89360000
C        2.43180000      -1.61570000       0.19050000
C        2.43950000      -1.40240000      -2.27350000
O        3.58080000      -1.44670000      -2.64970000
H       -0.31060000       1.86140000      -0.99450000
H       -1.62100000       0.76680000      -1.46640000
H       -1.63890000       1.53240000       0.13550000
H        0.43320000       0.25160000       0.74270000
H       -1.77830000      -1.57980000      -0.31900000
H       -0.57110000      -2.01730000       0.90120000
H       -1.79370000      -0.78490000       1.26850000
H        2.42820000       1.15330000       0.06860000
H        3.71440000       0.57810000      -1.01080000
H        2.25500000       1.31920000      -1.69250000
H        1.97810000      -2.60780000       0.10840000
H        3.51920000      -1.72710000       0.17750000
H        2.14260000      -1.18170000       1.15220000
H        1.60500000      -1.87940000      -2.83170000
