15
Properties=species:S:1:pos:R:3 gdb_6822=T pbc="F F F"
C       -0.18010000       1.55160000      -0.05860000
C       -0.02400000       0.04060000      -0.06670000
O       -1.18110000      -0.62460000      -0.49290000
C        1.24220000      -0.48680000      -0.77360000
O        1.89100000      -0.76090000       0.49110000
C        0.66400000      -0.57250000       1.21390000
C        0.81180000       0.25870000       2.40500000
N        0.88760000       0.93680000       3.33820000
H        0.74930000       2.04350000       0.23890000
H       -0.45710000       1.89770000      -1.05900000
H       -0.95700000       1.86120000       0.65010000
H       -1.95310000      -0.14510000      -0.17360000
H        1.05110000      -1.40250000      -1.34410000
H        1.81080000       0.22600000      -1.37810000
H        0.19560000      -1.52670000       1.48760000
