23
Properties=species:S:1:pos:R:3 gdb_103171=T pbc="F F F"
C        0.13880000       1.55570000      -0.14090000
C        0.07050000       0.06570000       0.12030000
O        0.87840000      -0.70130000      -0.80520000
C        1.41440000      -1.51870000       0.25760000
C        2.91470000      -1.70420000       0.14560000
C        0.78680000      -0.58940000       1.34180000
C        1.75860000       0.29990000       2.11370000
C       -0.16340000      -1.30320000       2.29480000
O       -0.93350000      -0.31510000       2.96760000
H        1.16510000       1.92930000      -0.10360000
H       -0.26290000       1.77240000      -1.13610000
H       -0.46320000       2.09680000       0.59620000
H       -0.97980000      -0.25820000       0.06580000
H        0.93100000      -2.50970000       0.25470000
H        3.44210000      -0.74730000       0.14590000
H        3.29340000      -2.31620000       0.97150000
H        3.14910000      -2.21960000      -0.79130000
H        2.42180000       0.86240000       1.45300000
H        1.20640000       1.01050000       2.73330000
H        2.38640000      -0.30470000       2.77820000
H       -0.81300000      -1.98450000       1.72300000
H        0.41170000      -1.91580000       3.00950000
H       -1.55150000      -0.75940000       3.55500000
