18
Properties=species:S:1:pos:R:3 gdb_54571=T pbc="F F F"
C        0.03910000       1.34390000      -0.47010000
C       -0.09460000       0.03610000       0.28340000
O        0.74890000      -0.35970000       1.05830000
C       -1.33000000      -0.76110000       0.02860000
C       -2.57130000      -0.43480000      -0.78700000
C       -3.24840000      -1.49630000       0.09690000
C       -2.59000000      -2.84510000      -0.26250000
C       -1.36450000      -2.22750000       0.38080000
N       -2.16010000      -1.27640000       1.20310000
H        1.01170000       1.79020000      -0.26090000
H       -0.07580000       1.18340000      -1.54830000
H       -0.75450000       2.03630000      -0.16620000
H       -2.94120000       0.56820000      -0.55910000
H       -2.56220000      -0.59030000      -1.87100000
H       -4.29940000      -1.42350000       0.36780000
H       -2.98160000      -3.65900000       0.35230000
H       -2.55990000      -3.15030000      -1.31340000
H       -0.47450000      -2.69760000       0.78080000
