21
Properties=species:S:1:pos:R:3 gdb_91626=T pbc="F F F"
C       -0.21110000       1.54960000      -0.01070000
C        0.04250000       0.04120000       0.01180000
C        0.89140000      -0.49670000      -1.19650000
C        2.00140000      -1.34490000      -0.51490000
C        1.25180000      -1.89450000       0.71880000
C        0.83160000      -0.50480000       1.24490000
C        2.17360000       0.23320000       1.26370000
O        3.33500000      -0.58570000       1.47420000
C        2.92970000      -0.31060000       0.12790000
H        0.72240000       2.11950000      -0.05820000
H       -0.80750000       1.82930000      -0.88570000
H       -0.75950000       1.87500000       0.88040000
H       -0.93180000      -0.46110000       0.00690000
H        0.28470000      -1.10820000      -1.87050000
H        1.31210000       0.32020000      -1.79330000
H        2.48370000      -2.07760000      -1.16380000
H        0.39200000      -2.51140000       0.44460000
H        1.89490000      -2.44290000       1.40500000
H        0.26670000      -0.48470000       2.17900000
H        2.26190000       1.25730000       1.61050000
H        3.62450000       0.27350000      -0.46920000
