21
Properties=species:S:1:pos:R:3 gdb_3067=T pbc="F F F"
C       -0.01460000       1.53240000      -0.18460000
C       -0.01820000       0.02230000       0.06810000
C       -1.41650000      -0.59930000      -0.00670000
C       -1.42760000      -2.11180000       0.24900000
C       -2.81160000      -2.72190000       0.17820000
C       -3.39290000      -3.14680000      -1.14810000
C       -2.99400000      -4.18620000      -0.12750000
H        0.99640000       1.94740000      -0.12170000
H       -0.40990000       1.76830000      -1.17900000
H       -0.63620000       2.05780000       0.54910000
H        0.63730000      -0.47270000      -0.66110000
H        0.41820000      -0.18540000       1.05440000
H       -2.07280000      -0.10410000       0.72290000
H       -1.85600000      -0.39640000      -0.99270000
H       -0.77740000      -2.61040000      -0.48340000
H       -0.98540000      -2.31640000       1.23440000
H       -3.52110000      -2.29800000       0.88560000
H       -4.44920000      -2.98360000      -1.33160000
H       -2.76930000      -3.04050000      -2.03030000
H       -2.10450000      -4.77540000      -0.32650000
H       -3.77860000      -4.73030000       0.38700000
