23
Properties=species:S:1:pos:R:3 gdb_64363=T pbc="F F F"
C        0.25570000       1.55280000      -0.14800000
C       -0.00060000       0.04180000       0.01960000
C       -1.50380000      -0.22770000       0.12190000
C        0.66380000      -0.75530000      -1.13010000
C        2.16470000      -0.80120000      -0.77910000
C        2.21100000      -0.83070000       0.77040000
C        0.79370000      -0.47690000       1.23280000
C        0.46150000      -0.16640000       2.62530000
O        0.15180000      -1.45000000       2.07420000
H        1.32310000       1.78930000      -0.20070000
H       -0.21150000       1.92120000      -1.06780000
H       -0.16560000       2.11620000       0.69090000
H       -2.00760000       0.08400000      -0.79950000
H       -1.70360000      -1.28850000       0.28660000
H       -1.95900000       0.32970000       0.94770000
H        0.25220000      -1.77170000      -1.13940000
H        0.46820000      -0.31580000      -2.11320000
H        2.66730000      -1.66280000      -1.22560000
H        2.67240000       0.08980000      -1.16120000
H        2.45870000      -1.82240000       1.15860000
H        2.95370000      -0.13320000       1.16940000
H        1.24920000      -0.15900000       3.37890000
H       -0.39940000       0.45950000       2.86030000
