18
Properties=species:S:1:pos:R:3 gdb_22377=T pbc="F F F"
C       -0.02790000       1.53120000       0.06590000
C       -0.03620000       0.03150000       0.02150000
C       -1.32150000      -0.82680000      -0.03750000
C       -0.67130000      -1.76640000       0.96580000
N       -1.05420000      -2.74510000       1.67430000
O       -2.37970000      -3.10650000       1.34910000
C        0.60240000      -1.00830000       1.02110000
C        1.12490000      -0.79910000      -0.38870000
O        0.99020000      -1.75050000      -1.40170000
H        0.97510000       1.91870000       0.27080000
H       -0.35620000       1.94970000      -0.89320000
H       -0.70150000       1.91090000       0.84180000
H       -2.19320000      -0.32760000       0.39550000
H       -1.58310000      -1.24300000      -1.01200000
H       -2.54590000      -3.82850000       1.96390000
H        1.22890000      -0.86680000       1.89370000
H        2.07240000      -0.25620000      -0.40540000
H        1.44740000      -2.55180000      -1.12530000
