16
Properties=species:S:1:pos:R:3 gdb_49133=T pbc="F F F"
O        0.05390000      -0.04350000      -0.06390000
C        0.04700000       1.16530000      -0.09130000
C        1.29120000       1.97540000      -0.01850000
C        1.22950000       3.33670000       0.02150000
C        2.45000000       4.14020000       0.02030000
O        2.45700000       5.35580000       0.07980000
C        3.74380000       3.33100000      -0.14720000
C        3.65020000       1.94110000       0.48820000
N        2.44880000       1.26740000       0.01600000
H       -0.88910000       1.75160000      -0.16650000
H        0.27220000       3.84380000      -0.00050000
H        3.92350000       3.23230000      -1.22640000
H        4.57440000       3.90120000       0.27380000
H        4.52320000       1.33450000       0.23380000
H        3.62060000       2.04140000       1.58600000
H        2.33390000       0.27610000       0.17600000
