23
Properties=species:S:1:pos:R:3 gdb_73273=T pbc="F F F"
C       -0.04460000       1.54970000      -0.02100000
C       -0.04780000       0.02650000      -0.02160000
C       -1.29040000      -0.69590000       0.55380000
O       -0.45500000      -1.59590000       1.31090000
C        0.66320000      -0.68360000       1.17140000
C        2.01210000      -1.35720000       0.98810000
C        2.21300000      -1.95310000      -0.41010000
C        1.85470000      -0.92150000      -1.48680000
C        0.36640000      -0.55790000      -1.39470000
H        0.93830000       1.94420000      -0.30360000
H       -0.77250000       1.94340000      -0.73980000
H       -0.29520000       1.95280000       0.96580000
H       -1.90200000      -0.06310000       1.21490000
H       -1.94550000      -1.22600000      -0.14640000
H        0.70070000      -0.01990000       2.05070000
H        2.78760000      -0.60130000       1.17290000
H        2.12720000      -2.11930000       1.76810000
H        3.24850000      -2.29160000      -0.52230000
H        1.57400000      -2.83650000      -0.53120000
H        2.47910000      -0.02520000      -1.36330000
H        2.07250000      -1.31570000      -2.48540000
H       -0.20690000      -1.47220000      -1.58820000
H        0.09230000       0.15060000      -2.18510000
