18
Properties=species:S:1:pos:R:3 gdb_33134=T pbc="F F F"
C       -0.17850000       1.52830000       0.01950000
C       -0.06510000       0.01530000      -0.01910000
O       -1.37300000      -0.53340000       0.03840000
C       -1.44680000      -1.89440000       0.01280000
C       -0.46740000      -2.86270000      -0.05920000
N       -1.11280000      -4.07860000      -0.04990000
C       -2.47750000      -3.90120000       0.02450000
C       -2.70940000      -2.54800000       0.06540000
O       -3.92030000      -1.92490000       0.14290000
H        0.81590000       1.98210000      -0.02330000
H       -0.76250000       1.89310000      -0.83010000
H       -0.66890000       1.85490000       0.94090000
H        0.43260000      -0.32010000      -0.94170000
H        0.52660000      -0.35830000       0.83040000
H        0.60470000      -2.79200000      -0.11410000
H       -0.65420000      -4.96860000      -0.09850000
H       -3.16280000      -4.73100000       0.04330000
H       -3.74400000      -0.97730000       0.15400000
