20
Properties=species:S:1:pos:R:3 gdb_16912=T pbc="F F F"
O       -0.12440000       1.45220000       0.06470000
C        0.02240000       0.03780000       0.02010000
C        0.79930000      -0.50630000       1.22200000
C        1.03060000      -2.01810000       1.07910000
C       -0.24130000      -2.78600000       0.75720000
C       -1.49200000      -2.62180000       1.57940000
C       -1.43880000      -2.05680000       0.17690000
C       -1.39240000      -0.54350000      -0.03390000
H        0.75580000       1.84000000       0.10050000
H        0.56170000      -0.25830000      -0.89700000
H        1.76750000       0.00510000       1.30090000
H        0.24680000      -0.26940000       2.13980000
H        1.74900000      -2.18280000       0.26470000
H        1.49920000      -2.41840000       1.98670000
H       -0.06450000      -3.78730000       0.37390000
H       -2.10360000      -3.49830000       1.76500000
H       -1.48000000      -1.91230000       2.40150000
H       -2.00920000      -2.60140000      -0.56860000
H       -1.98530000      -0.02570000       0.73000000
H       -1.84160000      -0.28440000      -0.99720000
