23
Properties=species:S:1:pos:R:3 gdb_114358=T pbc="F F F"
C        0.14190000       1.35320000      -0.35400000
C        0.01910000      -0.15000000      -0.08500000
C       -1.42220000      -0.61100000       0.08910000
C       -2.40120000      -0.55300000      -1.13370000
C       -2.79220000      -2.04150000      -0.89940000
C       -1.93770000      -3.09780000      -1.62940000
C       -1.48970000      -2.93470000      -3.06600000
O       -0.86030000      -2.93210000      -0.66550000
C       -1.69650000      -2.12890000       0.19890000
H        1.18700000       1.64750000      -0.49220000
H       -0.40550000       1.64240000      -1.25790000
H       -0.26240000       1.94190000       0.47730000
H        0.47330000      -0.72050000      -0.90230000
H        0.58830000      -0.40930000       0.81760000
H       -1.87460000      -0.10330000       0.95060000
H       -3.23050000       0.14760000      -1.01680000
H       -1.92340000      -0.34820000      -2.09540000
H       -3.84670000      -2.26440000      -0.74200000
H       -2.38330000      -4.09700000      -1.50240000
H       -1.04220000      -1.95420000      -3.24670000
H       -0.74170000      -3.69600000      -3.30970000
H       -2.33860000      -3.06390000      -3.74630000
H       -1.81510000      -2.58000000       1.18910000
