23
Properties=species:S:1:pos:R:3 gdb_115765=T pbc="F F F"
C        0.05520000       1.73000000       0.14720000
C        0.44970000       0.26930000      -0.09950000
C        0.65260000      -0.50810000       1.19510000
C       -0.56960000      -0.81610000       2.10680000
C        0.04650000      -2.20730000       2.41240000
C        0.97670000      -2.04160000       1.17330000
C        0.48700000      -2.80720000      -0.06800000
C        0.76490000      -4.28360000       0.08770000
O       -0.07590000      -5.13910000       0.19820000
H        0.82970000       2.25880000       0.71380000
H       -0.09440000       2.26650000      -0.79470000
H       -0.87610000       1.79640000       0.71980000
H       -0.32430000      -0.21560000      -0.70750000
H        1.37280000       0.23640000      -0.69430000
H        1.42630000      -0.00700000       1.79020000
H       -0.75160000      -0.14840000       2.95200000
H       -1.49620000      -0.89480000       1.52860000
H        0.61020000      -2.21270000       3.34900000
H       -0.62610000      -3.06850000       2.40810000
H        2.03190000      -2.28360000       1.34230000
H       -0.58610000      -2.67220000      -0.23170000
H        1.02520000      -2.44930000      -0.95640000
H        1.85010000      -4.54310000       0.12230000
