20
Properties=species:S:1:pos:R:3 gdb_94063=T pbc="F F F"
C       -0.01010000       1.55020000       0.03450000
C        0.01300000       0.02530000      -0.00200000
C        0.68900000      -0.51830000      -1.27510000
N        0.83440000      -1.97850000      -1.29610000
C        1.47320000      -2.47200000      -0.06990000
C        0.79140000      -1.94070000       1.22290000
N        0.65030000      -0.49180000       1.21790000
C        1.51240000      -3.93730000      -0.07560000
N        1.51250000      -5.09210000      -0.03330000
H        1.00830000       1.95690000       0.00450000
H       -0.55350000       1.95580000      -0.82420000
H       -0.48920000       1.90430000       0.95090000
H       -1.02310000      -0.34700000       0.01080000
H        0.13170000      -0.22250000      -2.17070000
H        1.69380000      -0.07870000      -1.36180000
H       -0.07950000      -2.41410000      -1.39060000
H        2.51220000      -2.11070000      -0.07850000
H       -0.20610000      -2.39270000       1.29750000
H        1.35760000      -2.24880000       2.10760000
H        1.56140000      -0.05430000       1.33360000
