21
Properties=species:S:1:pos:R:3 gdb_92628=T pbc="F F F"
C       -0.02070000       1.59460000      -0.15740000
C        0.11620000       0.09900000       0.01000000
O        0.63830000      -0.48610000      -1.16630000
C        1.25810000      -1.70270000      -0.76700000
C        2.62480000      -1.91880000      -1.43650000
C        3.53200000      -2.41710000      -0.29440000
C        3.06680000      -1.60020000       0.92680000
C        1.54220000      -1.50340000       0.75690000
O        1.03960000      -0.20260000       1.03770000
H        0.95480000       2.02720000      -0.39190000
H       -0.71800000       1.81650000      -0.96890000
H       -0.39980000       2.03960000       0.76580000
H       -0.86170000      -0.36490000       0.24790000
H        0.57670000      -2.54590000      -0.94300000
H        2.58430000      -2.60380000      -2.28700000
H        2.97220000      -0.94770000      -1.80370000
H        3.36350000      -3.48710000      -0.11860000
H        4.59680000      -2.29400000      -0.51020000
H        3.36700000      -2.03930000       1.88140000
H        3.47150000      -0.58380000       0.88250000
H        1.01400000      -2.24900000       1.36610000
