21
Properties=species:S:1:pos:R:3 gdb_118261=T pbc="F F F"
C       -0.27580000       1.61660000      -0.25170000
C        0.02430000       0.14080000       0.02530000
C        0.95420000      -0.46390000      -1.07280000
C        0.35740000      -1.65630000      -1.80910000
O        0.15020000      -2.70120000      -0.86560000
N        0.52550000       0.02620000       1.39990000
C        0.59370000      -1.33980000       1.91140000
C        1.12080000      -1.34920000       3.27910000
N        1.55960000      -1.36340000       4.34760000
H        0.64600000       2.21120000      -0.23350000
H       -0.72920000       1.74240000      -1.24010000
H       -0.95450000       2.02040000       0.50310000
H       -0.92320000      -0.41250000       0.00860000
H        1.20160000       0.30270000      -1.81590000
H        1.90500000      -0.77530000      -0.62330000
H       -0.59350000      -1.36210000      -2.28260000
H        1.03770000      -1.98060000      -2.61110000
H       -0.26510000      -3.44350000      -1.31390000
H        1.43870000       0.46530000       1.47360000
H       -0.41990000      -1.75740000       1.92630000
H        1.19170000      -2.03800000       1.30450000
