15
Properties=species:S:1:pos:R:3 gdb_67433=T pbc="F F F"
O       -0.16180000       1.42130000       0.07130000
C       -0.00710000       0.07250000       0.00530000
C       -1.04100000      -0.99920000      -0.04980000
C       -0.40440000      -1.65590000      -1.27130000
C        0.90490000      -0.96170000      -0.81190000
O        1.25030000      -1.65570000       0.41250000
C        0.13660000      -1.04450000       1.02710000
C       -0.12530000      -1.08300000       2.46270000
O        0.55360000      -1.65760000       3.27940000
H        0.63980000       1.81230000       0.44040000
H       -2.07520000      -0.96010000       0.26640000
H       -0.36740000      -2.74640000      -1.32770000
H       -0.79410000      -1.22510000      -2.19660000
H        1.75370000      -0.77530000      -1.46550000
H       -1.03450000      -0.50620000       2.74870000
