18
Properties=species:S:1:pos:R:3 gdb_50043=T pbc="F F F"
O       -0.19800000       0.41190000       0.85250000
C        0.32820000       0.77590000      -0.16900000
C        1.45690000       1.74560000      -0.22460000
N        2.25430000       1.71490000      -1.47370000
C        1.44350000       2.88880000      -1.19370000
C        0.31070000       3.24180000      -2.16730000
C        0.43490000       4.77650000      -2.28730000
O        1.76530000       5.09330000      -1.88860000
C        2.06280000       4.23340000      -0.80710000
H        0.00380000       0.40990000      -1.16800000
H        1.95580000       1.91100000       0.72850000
H        3.23580000       1.87870000      -1.26110000
H        0.49150000       2.74230000      -3.12170000
H       -0.67570000       2.94230000      -1.80580000
H        0.29350000       5.15120000      -3.30300000
H       -0.28930000       5.27850000      -1.62640000
H        1.61500000       4.60800000       0.12930000
H        3.14910000       4.19160000      -0.68090000
