23
Properties=species:S:1:pos:R:3 gdb_58575=T pbc="F F F"
C        1.01480000      -0.70650000      -0.97760000
C        0.01830000       0.00740000      -0.05010000
C        0.11140000       1.52840000      -0.24070000
C       -1.41990000      -0.52140000      -0.25800000
O       -1.74910000      -0.21640000      -1.62660000
C       -1.55860000      -2.04670000       0.04580000
C       -2.91050000      -2.23640000       0.77720000
C       -3.27980000      -0.83170000       1.18410000
C       -2.46590000       0.08380000       0.66040000
H        2.03160000      -0.34260000      -0.79830000
H        1.01770000      -1.78930000      -0.82150000
H        0.76390000      -0.51890000      -2.02500000
H        0.28240000      -0.22730000       0.98980000
H       -0.48740000       2.07330000       0.49510000
H        1.14750000       1.86460000      -0.13170000
H       -0.23710000       1.80940000      -1.23810000
H       -2.69910000      -0.33550000      -1.72590000
H       -1.48270000      -2.62410000      -0.87790000
H       -0.74250000      -2.36600000       0.70060000
H       -3.68520000      -2.67440000       0.13310000
H       -2.82410000      -2.90920000       1.63810000
H       -4.13320000      -0.61520000       1.81880000
H       -2.56350000       1.15510000       0.79040000
