21
Properties=species:S:1:pos:R:3 gdb_83571=T pbc="F F F"
C       -0.01780000       1.55390000       0.02460000
C        0.01590000       0.02560000       0.00140000
C        0.89600000      -0.57530000      -1.11930000
C        2.31640000      -0.39600000      -0.52320000
O        2.15180000      -0.24850000       0.89370000
C        0.78510000      -0.58430000       1.18650000
C        0.59420000      -2.09170000       1.20010000
C        0.48970000      -2.76280000       0.05270000
C        0.54550000      -2.06690000      -1.28760000
H        0.98370000       1.97080000       0.16250000
H       -0.42950000       1.95170000      -0.90920000
H       -0.64450000       1.91810000       0.84570000
H       -1.00440000      -0.36720000      -0.05030000
H        0.79090000      -0.04800000      -2.07170000
H        2.95760000      -1.25980000      -0.74200000
H        2.81730000       0.50240000      -0.90170000
H        0.55040000      -0.13460000       2.15450000
H        0.58130000      -2.60620000       2.15620000
H        0.36580000      -3.84320000       0.05050000
H       -0.41790000      -2.17700000      -1.80750000
H        1.28580000      -2.56030000      -1.93230000
