20
Properties=species:S:1:pos:R:3 gdb_52421=T pbc="F F F"
O        0.21790000       0.08500000      -0.95040000
C        0.11370000       1.16890000      -0.41430000
N        1.03330000       1.72870000       0.41240000
C        2.30350000       1.10400000       0.73180000
C        3.45850000       2.06310000       0.49080000
O        3.23460000       3.20660000       1.30380000
C        4.18260000       4.21380000       1.12440000
C        4.40610000       5.12990000       2.28160000
C        5.48430000       4.14110000       1.88070000
H       -0.76840000       1.82640000      -0.54880000
H        0.87100000       2.65160000       0.78340000
H        2.31740000       0.78020000       1.78050000
H        2.39730000       0.21850000       0.09990000
H        4.41430000       1.58420000       0.74940000
H        3.49790000       2.35290000      -0.57060000
H        4.20090000       4.63280000       0.11740000
H        4.55900000       6.18490000       2.08500000
H        3.84840000       4.91020000       3.18470000
H        5.62750000       3.28420000       2.52950000
H        6.38640000       4.50990000       1.40540000
