14
Properties=species:S:1:pos:R:3 gdb_50123=T pbc="F F F"
O       -0.10480000      -0.03490000      -0.05810000
C       -0.01990000       1.14570000       0.16210000
C        1.26370000       1.93350000       0.04400000
C        1.25930000       3.17570000      -0.93090000
C        1.57030000       4.07290000       0.27820000
O        0.51590000       3.88290000       1.23110000
C        1.56080000       2.91440000       1.20080000
C        2.30930000       5.29550000       0.31090000
N        2.92300000       6.27520000       0.29330000
H       -0.90130000       1.74800000       0.46850000
H        2.09290000       1.25500000      -0.16120000
H        2.07060000       3.12160000      -1.65730000
H        0.32060000       3.41300000      -1.43520000
H        2.11280000       2.74140000       2.11670000
