17
Properties=species:S:1:pos:R:3 gdb_17583=T pbc="F F F"
C       -0.00210000       1.52950000       0.02510000
C       -0.00130000       0.03410000       0.08770000
C        1.15780000      -0.85070000      -0.30230000
C        0.56290000      -0.96710000       1.08660000
O        1.28680000      -0.73540000       2.24350000
C       -0.75030000      -1.69970000       1.00570000
C       -1.88520000      -0.78010000       1.25380000
N       -1.25380000      -0.75140000      -0.08000000
H        0.96110000       1.92730000       0.35740000
H       -0.18090000       1.87760000      -0.99820000
H       -0.78060000       1.95470000       0.66720000
H        1.02110000      -1.63520000      -1.04240000
H        2.11910000      -0.34510000      -0.33310000
H        2.01040000      -1.37020000       2.28540000
H       -0.88230000      -2.77330000       0.90650000
H       -2.88540000      -1.20260000       1.23950000
H       -1.75070000       0.06530000       1.92400000
