15
Properties=species:S:1:pos:R:3 gdb_109501=T pbc="F F F"
O        0.01520000       1.47870000      -0.16980000
C        0.09490000       0.07890000      -0.09970000
C       -1.30720000      -0.55590000       0.02870000
C       -1.36760000      -2.07170000       0.01760000
O       -0.80440000      -2.82980000      -0.72330000
C       -2.29100000      -2.47550000       1.17110000
O       -2.56010000      -1.27710000       1.90770000
C       -1.98230000      -0.18710000       1.33660000
O       -2.00890000       0.89310000       1.86010000
H       -0.48260000       1.77290000       0.60620000
H        0.55610000      -0.27810000      -1.02410000
H        0.72260000      -0.26170000       0.73890000
H       -1.92130000      -0.17210000      -0.79710000
H       -3.22850000      -2.89810000       0.79360000
H       -1.81310000      -3.20860000       1.82750000
