23
Properties=species:S:1:pos:R:3 gdb_93677=T pbc="F F F"
C        0.90390000       1.46540000      -0.35010000
C        0.09920000       0.21730000       0.00240000
O        0.14920000      -0.69170000      -1.11200000
C        0.70370000      -1.93200000      -0.71670000
C        1.47750000      -1.68300000       0.58690000
C        1.66880000      -2.94080000       1.43230000
O        2.74300000      -1.06990000       0.31950000
C        0.58630000      -0.59830000       1.22960000
C        1.22830000       0.19820000       2.36360000
H        1.96080000       1.22000000      -0.47090000
H        0.52970000       1.87860000      -1.29130000
H        0.80010000       2.23460000       0.42220000
H       -0.95130000       0.50560000       0.14960000
H       -0.08690000      -2.68330000      -0.55490000
H        1.35680000      -2.30090000      -1.51810000
H        2.25010000      -3.69200000       0.88340000
H        2.21460000      -2.70370000       2.34960000
H        0.71060000      -3.39510000       1.70210000
H        3.27570000      -1.69390000      -0.18430000
H       -0.28840000      -1.12630000       1.62970000
H        2.15170000       0.68020000       2.03930000
H        0.54430000       0.96930000       2.73290000
H        1.46940000      -0.45530000       3.20820000
