16
Properties=species:S:1:pos:R:3 gdb_79664=T pbc="F F F"
N        0.06590000       1.52160000      -0.13590000
C       -0.08070000       0.09500000      -0.01180000
C       -0.47650000      -0.67690000       1.20970000
N       -1.57330000      -0.22230000       2.12980000
C       -2.15500000       1.08140000       1.70300000
C       -2.48620000      -0.13760000       0.94310000
C       -1.40290000      -0.65490000      -0.03400000
C       -1.66650000      -1.67760000      -0.98690000
N       -1.89190000      -2.50400000      -1.76700000
H        0.95660000       1.80950000       0.25880000
H        0.07010000       1.78320000      -1.11710000
H        0.64560000      -0.51370000      -0.56140000
H        0.12780000      -1.49940000       1.57210000
H       -2.90860000       1.40630000       2.41540000
H       -1.52730000       1.84760000       1.27510000
H       -3.45590000      -0.62300000       0.96480000
