20
Properties=species:S:1:pos:R:3 gdb_59347=T pbc="F F F"
C       -0.02300000       1.59000000       0.04030000
C       -0.00420000       0.06100000       0.07020000
O       -1.31620000      -0.47990000       0.20860000
C        0.68630000      -0.51430000      -1.17050000
C        0.69450000      -2.06270000      -1.34510000
N       -0.06870000      -1.86570000      -2.58290000
C       -0.72350000      -2.79400000      -3.46720000
C       -0.19880000      -0.51180000      -2.44230000
O       -0.83530000       0.31270000      -3.05600000
H        0.99300000       1.99760000       0.05940000
H       -0.51040000       1.94470000      -0.87430000
H       -0.56740000       1.97460000       0.90690000
H        0.53080000      -0.28230000       0.96420000
H       -1.86420000      -0.07780000      -0.47670000
H        1.66430000      -0.05120000      -1.32650000
H        1.67360000      -2.53070000      -1.49060000
H        0.12950000      -2.59360000      -0.57190000
H       -1.42060000      -3.44390000      -2.92310000
H       -1.28490000      -2.21320000      -4.20310000
H        0.00180000      -3.42600000      -3.99270000
