16
Properties=species:S:1:pos:R:3 gdb_98650=T pbc="F F F"
O       -0.47400000       1.26930000      -0.96680000
C       -1.10830000       0.05520000      -0.70570000
C       -0.61580000      -0.54970000       0.59500000
O        0.24010000       0.00840000       1.24740000
C       -1.22010000      -1.85110000       1.07720000
C       -2.41830000      -1.73180000       2.05570000
C       -3.18100000      -2.42840000       0.94780000
N       -4.35530000      -2.82690000       0.79710000
O       -2.08570000      -2.49470000       0.09430000
H        0.14930000       1.40070000      -0.23480000
H       -2.20290000       0.17420000      -0.64550000
H       -0.93640000      -0.68160000      -1.50740000
H       -0.42450000      -2.52460000       1.40490000
H       -2.32540000      -2.29640000       2.98340000
H       -2.75200000      -0.71700000       2.27780000
H       -4.49500000      -3.26850000      -0.11280000
