16
Properties=species:S:1:pos:R:3 gdb_106098=T pbc="F F F"
O        0.06540000       1.35100000      -0.33480000
C        0.07900000      -0.01090000       0.04440000
C       -1.30090000      -0.57950000       0.05200000
C       -2.01630000      -1.87530000       0.11920000
C       -2.84980000      -1.34140000       1.28050000
N       -2.45580000       0.06700000       0.85070000
C       -3.16680000       0.14590000      -0.46630000
O       -4.01860000       0.89660000      -0.81700000
C       -2.29180000      -0.89570000      -1.06440000
H       -0.50970000       1.81240000       0.28750000
H        0.69920000      -0.54140000      -0.68550000
H        0.53960000      -0.15090000       1.03470000
H       -1.64330000      -2.87290000      -0.08270000
H       -3.93050000      -1.51680000       1.29590000
H       -2.41700000      -1.56990000       2.25700000
H       -2.10370000      -1.16730000      -2.09410000
