16
Properties=species:S:1:pos:R:3 gdb_45860=T pbc="F F F"
O       -0.02690000       0.14540000       0.87870000
C       -0.01810000       1.27250000       0.42860000
N       -1.16230000       1.90210000      -0.00020000
C       -1.21000000       3.18720000      -0.55540000
C       -0.16550000       4.01360000      -0.52640000
C        1.11400000       3.60150000       0.14940000
C        1.25040000       2.09040000       0.22920000
C        2.51180000       1.45110000       0.61520000
O        2.10730000       1.47810000      -0.75450000
H       -2.00170000       1.34430000       0.04980000
H       -2.16090000       3.44670000      -1.00440000
H       -0.24600000       4.99920000      -0.96670000
H        1.99020000       3.98880000      -0.38060000
H        1.15180000       4.02460000       1.16560000
H        3.36250000       2.08510000       0.86260000
H        2.47620000       0.47460000       1.09040000
