21
Properties=species:S:1:pos:R:3 gdb_72634=T pbc="F F F"
C        0.00280000       1.58540000       0.03390000
C        0.08430000       0.08390000       0.07580000
C        0.52990000      -0.78650000      -1.10970000
C        1.20050000      -1.77560000      -0.10360000
C        0.73690000      -0.87840000       1.05460000
C        1.52500000      -0.65890000       2.31700000
C       -0.79440000      -0.80570000       0.96710000
C       -1.55620000      -0.19520000       2.07510000
O       -2.64800000      -0.57600000       2.42890000
H        0.90770000       2.00270000      -0.42200000
H       -0.85290000       1.91730000      -0.56560000
H       -0.09980000       2.02910000       1.02780000
H       -0.26920000      -1.18190000      -1.74440000
H        1.26260000      -0.28140000      -1.74480000
H        0.83180000      -2.80600000      -0.09220000
H        2.28890000      -1.79530000      -0.20500000
H        2.57520000      -0.45570000       2.07910000
H        1.15170000       0.18360000       2.90520000
H        1.49710000      -1.54740000       2.95860000
H       -1.32980000      -1.63530000       0.50850000
H       -1.06770000       0.66090000       2.59090000
