24
Properties=species:S:1:pos:R:3 gdb_22200=T pbc="F F F"
C       -0.04950000       1.62590000      -0.08610000
C        0.02650000       0.10120000       0.02850000
C        0.62170000      -0.54700000      -1.22330000
C        0.73500000      -2.05160000      -1.20820000
C        1.40530000      -2.72610000      -2.38080000
C        2.87930000      -3.07950000      -2.09470000
C        3.56400000      -3.74340000      -3.29130000
N        0.26890000      -2.66740000      -0.18990000
O        0.44040000      -4.06300000      -0.29100000
H        0.94350000       2.06670000      -0.23100000
H       -0.67230000       1.93270000      -0.93430000
H       -0.47950000       2.06930000       0.81730000
H        0.62620000      -0.18190000       0.90020000
H       -0.97070000      -0.31350000       0.20860000
H        0.03020000      -0.26320000      -2.10740000
H        1.62450000      -0.13560000      -1.41670000
H        0.86070000      -3.64400000      -2.62340000
H        1.35170000      -2.06590000      -3.25440000
H        3.42460000      -2.16870000      -1.81650000
H        2.91310000      -3.74330000      -1.22530000
H        3.05750000      -4.67420000      -3.56930000
H        3.55550000      -3.08750000      -4.16930000
H        4.60750000      -3.98580000      -3.06710000
H        0.02740000      -4.37210000       0.52170000
