19
Properties=species:S:1:pos:R:3 gdb_44736=T pbc="F F F"
O        0.00660000      -0.08670000       0.24890000
C       -0.01300000       1.09970000       0.02160000
C       -1.34010000       1.86250000      -0.09360000
C       -1.24010000       3.09620000      -1.02520000
C       -0.06080000       3.97100000      -0.55080000
C        1.12930000       3.12940000      -1.05680000
C        1.28860000       1.89920000      -0.12870000
C        0.59980000       2.67440000      -2.41100000
C       -0.73440000       2.65570000      -2.39320000
H       -2.09960000       1.14750000      -0.42190000
H       -1.62400000       2.18470000       0.91850000
H       -2.19670000       3.62490000      -1.05310000
H       -0.08110000       4.94390000      -1.05060000
H       -0.04870000       4.13480000       0.53190000
H        2.06970000       3.68460000      -1.11010000
H        1.59040000       2.22970000       0.87560000
H        2.05880000       1.20570000      -0.47750000
H        1.23630000       2.33190000      -3.21860000
H       -1.38240000       2.29530000      -3.18360000
