20
Properties=species:S:1:pos:R:3 gdb_107282=T pbc="F F F"
C       -0.28730000       1.50210000      -0.10930000
C        0.11800000       0.03280000       0.08020000
C        0.85290000      -0.52260000      -1.10370000
N        0.16150000      -0.86760000      -2.36840000
C        0.96600000      -1.90220000      -1.67810000
C        2.44230000      -1.67420000      -2.07520000
C        2.72510000      -0.92610000      -3.40080000
O        2.61760000       0.36570000      -2.74350000
C        2.34550000      -0.25520000      -1.47920000
H        0.59090000       2.13110000      -0.28660000
H       -0.95300000       1.61850000      -0.96980000
H       -0.80280000       1.88410000       0.77690000
H        0.74990000      -0.06270000       0.97280000
H       -0.77300000      -0.58090000       0.27070000
H       -0.81490000      -1.04020000      -2.12810000
H        0.51130000      -2.83240000      -1.35730000
H        3.16110000      -2.41120000      -1.72250000
H        3.73560000      -1.07830000      -3.79800000
H        1.98010000      -1.04510000      -4.19150000
H        2.97070000       0.11670000      -0.66160000
