12
Properties=species:S:1:pos:R:3 gdb_21508=T pbc="F F F"
N       -0.10260000       1.31900000       0.00910000
C        0.09440000      -0.01330000       0.00210000
O        1.14650000      -0.60410000      -0.00930000
N       -1.14520000      -0.74370000       0.01040000
C       -1.29560000      -2.09340000       0.00720000
C       -2.65210000      -2.27490000       0.01830000
N       -3.26310000      -1.04940000       0.02740000
N       -2.35620000      -0.12670000       0.02250000
H        0.70440000       1.91720000       0.00270000
H       -1.03710000       1.69550000       0.01740000
H       -0.44640000      -2.75340000      -0.00220000
H       -3.22280000      -3.18880000       0.02030000
