19
Properties=species:S:1:pos:R:3 gdb_118936=T pbc="F F F"
C       -0.01250000       1.39530000       0.63990000
O       -0.19680000       0.01330000       0.84580000
C        0.90410000      -0.75610000       0.43420000
C        0.62430000      -2.22930000       0.73840000
C       -0.68090000      -2.72620000       0.14130000
O        1.77900000      -3.02090000       0.32570000
C        2.11710000      -3.43060000       1.66560000
C        0.90770000      -2.65130000       2.19570000
O        0.39740000      -2.47240000       3.25760000
H        0.13640000       1.63130000      -0.42540000
H       -0.91460000       1.89940000       0.99310000
H        0.85350000       1.77750000       1.20210000
H        1.08380000      -0.65990000      -0.65090000
H        1.82690000      -0.43680000       0.94640000
H       -0.65580000      -2.61670000      -0.94780000
H       -0.84340000      -3.78080000       0.37900000
H       -1.51140000      -2.13560000       0.53350000
H        2.07310000      -4.51780000       1.80710000
H        3.09710000      -3.06310000       1.99570000
