18
Properties=species:S:1:pos:R:3 gdb_33666=T pbc="F F F"
C        0.01030000      -1.17480000       0.00850000
C        0.00120000       0.02890000       0.00840000
C       -0.01680000       1.44640000       0.00710000
C       -0.73680000       2.48620000       0.86070000
C        0.59780000       3.19070000       1.03390000
N        1.21810000       2.30470000      -0.02030000
C        1.15470000       2.98430000      -1.32960000
C       -0.34830000       3.30750000      -1.59310000
C       -1.04720000       2.36230000      -0.62150000
H        0.02380000      -2.23620000       0.01100000
H       -1.48840000       2.30990000       1.62080000
H        0.64760000       4.26390000       0.81660000
H        1.06070000       2.99950000       2.00560000
H        1.79710000       3.86920000      -1.32180000
H        1.53760000       2.29320000      -2.08730000
H       -0.58700000       4.35660000      -1.38950000
H       -0.63960000       3.10280000      -2.62730000
H       -2.01620000       1.94160000      -0.86280000
