19
Properties=species:S:1:pos:R:3 gdb_114676=T pbc="F F F"
C        0.00650000       1.60540000      -0.01140000
C       -0.10470000       0.07740000      -0.03140000
C        0.67640000      -0.54570000      -1.17970000
O        2.08690000      -0.27270000      -1.06740000
C        2.70760000      -1.57080000      -1.24040000
O        1.85170000      -2.23120000      -2.14380000
C        0.68440000      -2.11120000      -1.30460000
C        1.18650000      -2.67080000       0.01790000
C        2.47780000      -2.33750000       0.06040000
H        1.05200000       1.91050000       0.08340000
H       -0.38800000       2.04400000      -0.93470000
H       -0.55380000       2.03010000       0.82680000
H        0.26220000      -0.33420000       0.91440000
H       -1.15800000      -0.21920000      -0.12770000
H        0.32670000      -0.14080000      -2.13900000
H        3.71420000      -1.44650000      -1.63370000
H       -0.19050000      -2.55840000      -1.77160000
H        0.57260000      -3.11920000       0.78620000
H        3.19020000      -2.44400000       0.86620000
