21
Properties=species:S:1:pos:R:3 gdb_70575=T pbc="F F F"
C       -0.00720000       1.50190000      -0.03260000
C        0.01540000      -0.01150000       0.01460000
N       -0.33700000      -0.69040000       1.27390000
C        1.06770000      -0.70920000       0.80470000
C        1.61750000      -2.03850000       0.30290000
C        1.76590000      -2.05960000      -1.23220000
C        0.48070000      -1.65940000      -1.93150000
N       -0.76000000      -2.09800000      -1.27550000
C       -0.42140000      -0.66700000      -1.27670000
H        0.56270000       1.88240000      -0.88820000
H       -1.03350000       1.87790000      -0.12690000
H        0.42820000       1.93000000       0.87600000
H       -0.44230000       0.00670000       2.00840000
H        1.77170000      -0.07150000       1.33630000
H        2.58880000      -2.24240000       0.76470000
H        0.93130000      -2.83260000       0.60470000
H        2.56210000      -1.37160000      -1.54810000
H        2.06970000      -3.06180000      -1.55780000
H        0.51390000      -1.66310000      -3.01960000
H       -1.48830000      -2.27960000      -1.95990000
H       -1.00650000      -0.02230000      -1.93010000
