19
Properties=species:S:1:pos:R:3 gdb_73061=T pbc="F F F"
C       -0.30490000       1.49970000       0.01320000
C        0.02880000       0.04490000       0.05700000
O       -1.06780000      -0.88410000       0.01150000
C       -0.41900000      -1.72320000       1.00380000
C        0.82700000      -0.84980000       0.98930000
C        1.28100000      -0.61520000      -0.44940000
C        1.28600000      -1.67060000      -1.54030000
C        2.34500000      -2.72540000      -1.31430000
O        3.15510000      -3.07950000      -2.13190000
H        0.59900000       2.10450000       0.12820000
H       -0.76400000       1.75670000      -0.94820000
H       -1.00960000       1.76530000       0.80710000
H       -0.96450000      -1.68200000       1.95300000
H       -0.33250000      -2.76660000       0.67770000
H        1.44220000      -0.60820000       1.84590000
H        2.12410000       0.07200000      -0.48380000
H        0.30430000      -2.16280000      -1.55430000
H        1.44470000      -1.22230000      -2.52550000
H        2.33130000      -3.17210000      -0.29210000
