19
Properties=species:S:1:pos:R:3 gdb_32452=T pbc="F F F"
C        0.01790000       1.37430000       0.05200000
O       -0.02060000      -0.03950000       0.00310000
C        0.62350000      -0.59280000      -1.05110000
C        1.30440000      -0.01280000      -2.07770000
O        1.78420000      -0.99350000      -2.90600000
C        1.39850000      -2.19460000      -2.39030000
C        1.82420000      -3.39990000      -3.15020000
C        0.67880000      -2.01780000      -1.24560000
C        0.05640000      -3.03620000      -0.34450000
H        1.05200000       1.73910000       0.11960000
H       -0.45440000       1.81330000      -0.83740000
H       -0.53370000       1.67640000       0.94360000
H        1.53130000       1.00000000      -2.35750000
H        1.42750000      -3.39010000      -4.17210000
H        2.91600000      -3.46110000      -3.22500000
H        1.46660000      -4.30580000      -2.65650000
H        0.45500000      -2.96460000       0.67380000
H       -1.02750000      -2.89270000      -0.26920000
H        0.23550000      -4.05290000      -0.70370000
