19
Properties=species:S:1:pos:R:3 gdb_89879=T pbc="F F F"
C       -0.78430000       1.25060000       0.26480000
C       -0.01320000      -0.03730000       0.07120000
C        0.76550000      -0.22970000      -1.25370000
C        1.98940000      -0.26030000      -0.34530000
C        3.19740000      -1.10630000      -0.36680000
C        3.34580000       0.41980000      -0.49750000
C        3.72250000       0.99310000      -1.80300000
O        4.30480000       2.03850000      -1.96230000
O        1.23210000      -0.05620000       0.83410000
H       -0.17770000       2.11480000      -0.02220000
H       -1.69470000       1.24340000      -0.34470000
H       -1.07570000       1.36680000       1.31310000
H       -0.62670000      -0.90290000       0.34830000
H        0.56000000      -1.15480000      -1.79500000
H        0.70700000       0.61720000      -1.94030000
H        3.53010000      -1.54160000       0.56850000
H        3.39910000      -1.70080000      -1.25360000
H        3.69380000       0.96460000       0.37340000
H        3.41440000       0.37010000      -2.67790000
