17
Properties=species:S:1:pos:R:3 gdb_42729=T pbc="F F F"
O        0.01890000       0.05390000       0.06940000
C       -0.03810000       1.25300000       0.05300000
C       -1.23270000       2.19230000      -0.02910000
C       -0.81570000       3.25520000       1.04660000
C        0.33310000       3.56190000       0.03840000
C       -0.70000000       3.22790000      -1.08190000
C        1.11640000       2.26170000       0.10200000
C        2.42000000       1.99640000       0.71170000
O        2.26090000       2.03370000      -0.71060000
H       -2.22150000       1.74290000      -0.07680000
H       -1.54190000       4.06830000       1.10840000
H       -0.55200000       2.90460000       2.04810000
H        0.89890000       4.49170000       0.05570000
H       -0.32250000       2.85140000      -2.03560000
H       -1.41630000       4.03570000      -1.24570000
H        2.98600000       2.82180000       1.14150000
H        2.61830000       1.01030000       1.12820000
