19
Properties=species:S:1:pos:R:3 gdb_32871=T pbc="F F F"
C        0.18890000       1.41740000       0.11240000
O        0.03110000       0.01910000       0.08390000
C        0.55270000      -0.55720000      -1.10180000
C        0.42210000      -2.03440000      -1.05170000
C       -0.41750000      -2.91540000      -1.65930000
C       -0.04830000      -4.22950000      -1.20930000
C       -0.67310000      -5.53510000      -1.59150000
C        0.99530000      -4.02880000      -0.35950000
O        1.29820000      -2.70830000      -0.25330000
H        1.24970000       1.71190000       0.06090000
H       -0.34140000       1.90870000      -0.71980000
H       -0.23080000       1.77320000       1.05620000
H        0.01170000      -0.18360000      -1.98590000
H        1.61270000      -0.27610000      -1.22060000
H       -1.21230000      -2.66380000      -2.34560000
H       -0.60960000      -5.71070000      -2.67150000
H       -0.17860000      -6.37140000      -1.08940000
H       -1.73510000      -5.56660000      -1.32300000
H        1.60660000      -4.69930000       0.22310000
