19
Properties=species:S:1:pos:R:3 gdb_35565=T pbc="F F F"
C        0.26950000      -1.19050000       0.32190000
C        0.16090000      -0.00270000       0.16510000
C        0.03480000       1.42850000       0.00430000
C       -0.40280000       2.27310000       1.24930000
C        0.84670000       3.18530000       1.08880000
C        1.93530000       3.04490000       2.15890000
C        2.60870000       1.71690000       1.77600000
O        2.54980000       1.66190000       0.35010000
C        1.36360000       2.28320000      -0.07630000
H        0.36890000      -2.24010000       0.44700000
H       -0.59680000       1.65000000      -0.86240000
H       -1.36640000       2.77360000       1.13640000
H       -0.41790000       1.69840000       2.17830000
H        0.62410000       4.22270000       0.83670000
H        2.65290000       3.86750000       2.07920000
H        1.53630000       3.03640000       3.17730000
H        3.66070000       1.65500000       2.06580000
H        2.07820000       0.85900000       2.21300000
H        1.55020000       2.72500000      -1.05750000
