21
Properties=species:S:1:pos:R:3 gdb_74941=T pbc="F F F"
C       -0.02090000       1.53640000       0.02700000
C       -0.04620000       0.04320000      -0.03280000
C       -0.09210000      -0.75690000      -1.10830000
C        0.08510000      -2.19030000      -0.64690000
C        1.57110000      -2.26920000      -0.11540000
C        1.28700000      -1.83850000       1.33010000
C        0.26240000      -2.92600000       1.74930000
C       -0.64480000      -2.19270000       0.73920000
C        0.02030000      -0.85580000       1.17300000
H        0.91270000       1.90210000       0.47440000
H       -0.11240000       1.98050000      -0.96850000
H       -0.83580000       1.92730000       0.64980000
H       -0.08640000      -0.44260000      -2.14620000
H       -0.19340000      -2.96970000      -1.35660000
H        1.98170000      -3.28330000      -0.14980000
H        2.23700000      -1.60380000      -0.66910000
H        2.13330000      -1.56460000       1.95960000
H        0.52660000      -3.97260000       1.56980000
H       -0.09640000      -2.80360000       2.77480000
H       -1.73050000      -2.30250000       0.71660000
H       -0.30070000      -0.44090000       2.13010000
