18
Properties=species:S:1:pos:R:3 gdb_37252=T pbc="F F F"
C       -0.01250000       1.52360000       0.00150000
O        1.16620000       0.70260000       0.02620000
C       -0.10460000       0.06830000       0.00840000
C       -0.55380000      -0.90510000       1.11260000
C       -1.00440000      -1.90500000       0.00290000
C       -2.43590000      -1.77060000      -0.56980000
N       -2.81090000      -0.33820000      -0.50630000
C       -1.96860000      -0.82910000      -1.62610000
C       -0.51360000      -0.91040000      -1.10500000
H       -0.21370000       2.07990000       0.91620000
H       -0.17940000       2.07520000      -0.92300000
H        0.29090000      -1.27290000       1.70120000
H       -1.33890000      -0.53900000       1.77600000
H       -0.62090000      -2.92320000       0.04560000
H       -3.20250000      -2.53560000      -0.59910000
H       -3.76370000      -0.26270000      -0.86030000
H       -2.29300000      -0.70100000      -2.65170000
H        0.24870000      -1.18850000      -1.83210000
