16
Properties=species:S:1:pos:R:3 gdb_26929=T pbc="F F F"
C       -0.05080000       1.51800000      -0.00350000
C       -0.01340000       0.02130000      -0.00720000
C       -0.03920000      -0.79120000      -1.10070000
N        0.01240000      -2.13040000      -0.67800000
C        0.07000000      -2.16120000       0.66710000
O        0.12780000      -3.28080000       1.36580000
C        0.05740000      -0.84530000       1.15020000
C        0.11150000      -0.63140000       2.55690000
O        0.16950000      -1.56570000       3.37080000
H        0.84070000       1.94460000       0.47070000
H       -0.10410000       1.90970000      -1.02290000
H       -0.91920000       1.90040000       0.54560000
H       -0.08950000      -0.55670000      -2.15130000
H        0.00780000      -2.94340000      -1.27010000
H        0.15950000      -2.95720000       2.30880000
H        0.10100000       0.41050000       2.92770000
