17
Properties=species:S:1:pos:R:3 gdb_51742=T pbc="F F F"
O       -0.55820000       0.27520000      -0.46880000
C       -0.30650000       1.41820000      -0.23930000
O        0.95240000       1.85800000      -0.02730000
C        1.15910000       3.23890000       0.22610000
C        2.03460000       3.60060000       1.45340000
C        2.76380000       4.66800000       0.57960000
C        2.19050000       3.95120000      -0.64700000
C        2.87870000       3.41210000      -1.81800000
O        1.94110000       4.50000000      -1.91920000
H       -1.05860000       2.22820000      -0.17470000
H        0.20090000       3.77340000       0.22460000
H        1.51400000       3.94560000       2.34710000
H        2.68840000       2.76510000       1.71130000
H        2.33950000       5.66860000       0.69870000
H        3.84990000       4.72850000       0.66210000
H        3.91950000       3.67790000      -1.99610000
H        2.54800000       2.47010000      -2.25000000
