16
Properties=species:S:1:pos:R:3 gdb_61753=T pbc="F F F"
C       -0.11920000       1.74700000      -0.37100000
C        0.15750000       0.26320000      -0.11540000
O        1.12760000       0.19040000       0.91330000
C        1.70730000      -1.01160000       1.13810000
N        2.56380000      -1.12710000       2.05400000
C       -1.11820000      -0.48430000       0.27670000
O       -1.29620000      -1.00730000       1.34880000
C       -2.22050000      -0.62000000      -0.78570000
O       -2.10170000      -0.25660000      -1.92620000
H        0.82220000       2.24450000      -0.61300000
H       -0.81240000       1.86770000      -1.20450000
H       -0.53580000       2.21530000       0.52470000
H        0.53490000      -0.19500000      -1.04210000
H        1.36950000      -1.80010000       0.45250000
H        2.91460000      -2.08190000       2.08600000
H       -3.12690000      -1.12480000      -0.39130000
