15
Properties=species:S:1:pos:R:3 gdb_5246=T pbc="F F F"
O       -0.06000000       1.42940000      -0.13260000
C        0.04660000       0.01660000      -0.11340000
C       -1.35990000      -0.53630000       0.13760000
C       -1.40820000      -2.02010000       0.17440000
C       -1.67390000      -2.95260000       1.12250000
N       -1.56160000      -4.22720000       0.57630000
C       -1.23700000      -4.00880000      -0.65380000
O       -1.12130000      -2.70140000      -0.98590000
H        0.81200000       1.79630000      -0.30460000
H        0.42870000      -0.37540000      -1.06780000
H        0.72340000      -0.33030000       0.68280000
H       -1.72810000      -0.15030000       1.09280000
H       -2.02480000      -0.14930000      -0.64380000
H       -1.94140000      -2.80020000       2.15620000
H       -1.05040000      -4.72610000      -1.43760000
