16
Properties=species:S:1:pos:R:3 gdb_96949=T pbc="F F F"
C       -0.02830000       1.41120000      -0.10760000
N       -0.01240000      -0.04310000      -0.07410000
C       -1.09260000      -0.66740000       0.06660000
O       -2.35410000      -0.11040000       0.19830000
C       -3.25000000      -1.15060000       0.54140000
C       -3.27330000      -2.38410000      -0.35030000
O       -2.09900000      -2.41880000      -1.14800000
C       -1.29310000      -2.16070000       0.05860000
C       -2.52470000      -2.39460000       0.96420000
H        0.84240000       1.78650000       0.43850000
H        0.07250000       1.75030000      -1.14570000
H       -0.93830000       1.85610000       0.31110000
H       -4.14650000      -0.80080000       1.03560000
H       -4.16070000      -2.88870000      -0.71380000
H       -0.39860000      -2.77440000       0.11150000
H       -2.60690000      -2.94730000       1.88930000
