18
Properties=species:S:1:pos:R:3 gdb_62271=T pbc="F F F"
C       -0.03480000       1.56550000       0.04500000
C        0.06290000       0.03610000       0.01160000
C       -1.26050000      -0.56100000       0.16300000
C       -2.36650000      -1.01310000       0.29600000
C        0.84680000      -0.64830000      -1.11250000
C        2.29420000      -0.70060000      -0.73970000
C        2.48230000      -0.09640000       0.63960000
C        1.09980000      -0.71040000       0.91790000
N        1.34270000      -1.74900000      -0.22470000
H        0.93550000       2.03370000      -0.13330000
H       -0.72670000       1.91380000      -0.72750000
H       -0.41800000       1.90710000       1.01150000
H       -3.33740000      -1.42750000       0.41050000
H        0.49600000      -0.85300000      -2.11770000
H        3.05610000      -0.95000000      -1.47000000
H        3.25590000      -0.63970000       1.18870000
H        2.63360000       0.97960000       0.76330000
H        0.80440000      -1.05580000       1.90590000
