18
Properties=species:S:1:pos:R:3 gdb_65709=T pbc="F F F"
C        0.34020000       1.39670000      -0.07440000
C       -0.01300000      -0.07880000      -0.07230000
C       -1.45810000      -0.40230000       0.28910000
C       -1.76700000      -0.06410000       1.73520000
O       -2.67290000       0.64000000       2.09770000
C        0.73010000      -1.00020000      -1.00360000
N        0.97000000      -1.04520000       0.42080000
C        2.19570000      -0.76180000       1.00190000
O        3.26520000      -1.08190000       0.54530000
H        1.39140000       1.55350000      -0.33100000
H       -0.27460000       1.92760000      -0.80810000
H        0.15240000       1.85590000       0.90200000
H       -2.15530000       0.13830000      -0.35740000
H       -1.62100000      -1.47980000       0.16240000
H       -1.07040000      -0.53260000       2.46710000
H        0.22120000      -1.86010000      -1.43110000
H        1.52100000      -0.57780000      -1.61810000
H        2.07970000      -0.26500000       1.98410000
