17
Properties=species:S:1:pos:R:3 gdb_56867=T pbc="F F F"
C        0.08820000       1.59310000      -0.04390000
C       -0.03890000       0.05730000      -0.02940000
C        0.42010000      -0.51240000      -1.30070000
N        0.77330000      -0.95920000      -2.30610000
C        0.69680000      -0.56680000       1.17260000
C        0.88100000      -2.11300000       1.21820000
C        2.39850000      -1.81310000       1.29420000
O        3.40340000      -2.44700000       1.44300000
N        2.15780000      -0.45860000       1.15910000
H        1.13320000       1.89370000      -0.15920000
H       -0.48010000       2.02540000      -0.87030000
H       -0.29460000       2.00680000       0.89370000
H       -1.09980000      -0.20580000       0.07560000
H        0.24240000      -0.16070000       2.08450000
H        0.47800000      -2.60890000       2.10210000
H        0.57590000      -2.64610000       0.31630000
H        2.77100000       0.33040000       1.30510000
