18
Properties=species:S:1:pos:R:3 gdb_79753=T pbc="F F F"
O        0.12640000       1.38750000       0.12030000
C        0.01070000       0.00290000      -0.04070000
C       -1.33790000      -0.69130000      -0.02910000
C       -2.64400000      -0.00790000      -0.35250000
C       -2.71890000       1.43810000      -0.69490000
N       -2.65010000       0.43320000      -1.76690000
C       -1.30390000       0.16000000      -2.31420000
C       -0.49620000      -0.66410000      -1.29240000
O        0.12720000      -1.83130000      -1.74250000
H        0.91620000       1.67690000      -0.34950000
H        0.78440000      -0.57020000       0.47430000
H       -1.39200000      -1.59550000       0.56610000
H       -3.53490000      -0.52490000      -0.00610000
H       -3.67850000       1.94590000      -0.63310000
H       -1.85260000       2.05420000      -0.49400000
H       -1.40850000      -0.45820000      -3.21110000
H       -0.81010000       1.09580000      -2.60260000
H        0.98960000      -1.59810000      -2.10320000
