17
Properties=species:S:1:pos:R:3 gdb_55407=T pbc="F F F"
C       -0.00010000       1.39130000       0.27490000
C        0.05260000      -0.10110000       0.05160000
O        1.07940000      -0.73620000       0.00790000
C       -1.31240000      -0.79970000      -0.10870000
C       -1.20860000      -2.25160000      -0.57530000
C       -1.21200000      -3.03170000       0.74900000
O       -1.90720000      -2.19800000       1.69950000
C       -1.95910000      -0.91450000       1.28540000
O       -2.43070000      -0.03230000       1.94470000
H        0.98480000       1.76530000       0.55570000
H       -0.32470000       1.88390000      -0.64990000
H       -0.74500000       1.62840000       1.04110000
H       -1.96130000      -0.16890000      -0.72090000
H       -2.07610000      -2.51960000      -1.18340000
H       -0.29810000      -2.43690000      -1.14590000
H       -1.74310000      -3.98380000       0.70010000
H       -0.19800000      -3.20130000       1.12220000
