18
Properties=species:S:1:pos:R:3 gdb_86715=T pbc="F F F"
C        0.24960000       1.61410000       0.17360000
C        0.04370000       0.10840000       0.14180000
O        0.56770000      -0.39480000      -1.09770000
C        1.10410000      -1.69730000      -0.93340000
C        2.33950000      -1.82700000      -1.81510000
O        2.74760000      -2.87930000      -2.23100000
C        1.43720000      -1.81850000       0.54820000
N        2.23430000      -0.66860000       1.02880000
C        0.77080000      -0.68190000       1.21630000
H        1.31800000       1.84120000       0.18510000
H       -0.20200000       2.07620000      -0.70820000
H       -0.21810000       2.04530000       1.06460000
H       -1.03040000      -0.12990000       0.20970000
H        0.38690000      -2.48360000      -1.21300000
H        2.84350000      -0.85920000      -2.01750000
H        1.55460000      -2.79810000       0.99620000
H        2.69050000      -0.92240000       1.90150000
H        0.34740000      -0.76110000       2.21180000
