23
Properties=species:S:1:pos:R:3 gdb_101227=T pbc="F F F"
C        0.10370000       1.47820000       0.13430000
C       -0.07100000      -0.04100000       0.01200000
C       -1.55090000      -0.42450000      -0.03030000
O       -2.16060000      -0.00240000       1.18240000
C        0.66480000      -0.59790000      -1.20510000
C        2.21730000      -0.49440000      -1.25020000
C        2.25260000      -1.88770000      -1.90480000
O        3.30680000      -2.70660000      -1.45450000
C        0.81430000      -2.13940000      -1.37440000
H        1.15810000       1.74760000       0.24870000
H       -0.27590000       1.98680000      -0.76070000
H       -0.44710000       1.85860000       0.99710000
H        0.35170000      -0.51200000       0.91110000
H       -2.02850000       0.05480000      -0.90210000
H       -1.64920000      -1.51380000      -0.15970000
H       -3.09640000      -0.21770000       1.13990000
H        0.23850000      -0.16200000      -2.11790000
H        2.67700000       0.33950000      -1.78470000
H        2.64420000      -0.55580000      -0.24380000
H        2.25380000      -1.80690000      -3.00180000
H        3.25650000      -3.54850000      -1.91840000
H        0.86340000      -2.63890000      -0.40090000
H        0.10670000      -2.66860000      -2.01810000
