18
Properties=species:S:1:pos:R:3 gdb_12548=T pbc="F F F"
O       -0.02590000       1.49100000       0.08770000
C        0.05990000       0.07100000       0.00490000
C        0.58370000      -0.51120000       1.32420000
O        1.04270000      -1.83640000       1.17200000
C        0.06300000      -2.84320000       1.29970000
C       -1.04290000      -2.87610000       0.27420000
C       -1.60890000      -1.88030000      -0.40820000
C       -1.34360000      -0.39870000      -0.36730000
H        0.86630000       1.83920000       0.18390000
H        0.76500000      -0.23820000      -0.78200000
H        1.45120000       0.07840000       1.64740000
H       -0.18190000      -0.43350000       2.11310000
H        0.61790000      -3.78660000       1.25270000
H       -0.39140000      -2.79910000       2.30810000
H       -1.45000000      -3.87540000       0.12490000
H       -2.42830000      -2.15500000      -1.07010000
H       -2.04160000       0.06680000       0.34610000
H       -1.59430000       0.04000000      -1.33940000
