16
Properties=species:S:1:pos:R:3 gdb_5898=T pbc="F F F"
C       -0.00690000       1.48270000       0.01320000
C        0.00510000       0.02760000       0.00330000
C        0.02200000      -1.17650000       0.00740000
C        0.03540000      -2.64940000      -0.04950000
C       -1.39380000      -3.21080000       0.13010000
N        0.58700000      -3.18940000      -1.30940000
C        0.88670000      -3.15790000       1.05310000
N        1.54280000      -3.54950000       1.91920000
H        0.50370000       1.87180000       0.90050000
H        0.49990000       1.88990000      -0.86840000
H       -1.03090000       1.87120000       0.01960000
H       -2.02760000      -2.83410000      -0.67750000
H       -1.36360000      -4.30120000       0.08730000
H       -1.81720000      -2.88900000       1.08290000
H        0.01470000      -2.83790000      -2.07350000
H        1.51850000      -2.80880000      -1.45560000
