15
Properties=species:S:1:pos:R:3 gdb_31385=T pbc="F F F"
O        0.54260000       0.55100000      -0.86650000
C       -0.15560000       0.31990000       0.33250000
C       -1.47720000      -0.36910000       0.12320000
C       -1.95150000      -0.88390000      -1.01580000
C       -3.27010000      -1.50710000      -1.04830000
N       -3.75820000      -1.99330000      -2.12300000
N       -3.96950000      -1.53670000       0.19050000
C       -3.42250000      -1.02520000       1.21170000
O       -2.20640000      -0.42020000       1.28850000
H        0.04040000       1.18640000      -1.38810000
H        0.48890000      -0.31530000       0.95230000
H       -0.33180000       1.24180000       0.90940000
H       -1.35510000      -0.85040000      -1.91700000
H       -4.68320000      -2.37870000      -1.92030000
H       -3.90480000      -1.01920000       2.18530000
