19
Properties=species:S:1:pos:R:3 gdb_98237=T pbc="F F F"
C        0.53850000       0.97620000       0.78450000
N        0.15130000      -0.30690000       0.22780000
C        0.48350000      -0.69750000      -1.02870000
O        1.13480000       0.00960000      -1.79180000
C       -0.03320000      -2.07450000      -1.44120000
C       -1.07270000      -1.91640000      -2.57270000
C        1.08690000      -3.03370000      -1.90060000
N        2.01450000      -2.47800000      -2.71910000
O        1.06460000      -4.20830000      -1.58440000
H        1.08960000       1.51360000       0.01260000
H       -0.34010000       1.56240000       1.07400000
H        1.18140000       0.84900000       1.66220000
H       -0.37010000      -0.94610000       0.80420000
H       -0.50050000      -2.58250000      -0.59360000
H       -1.40640000      -2.90050000      -2.91130000
H       -1.94500000      -1.35650000      -2.22200000
H       -0.63590000      -1.37940000      -3.41740000
H        2.05370000      -1.47010000      -2.80300000
H        2.79020000      -3.05090000      -3.00840000
