19
Properties=species:S:1:pos:R:3 gdb_90265=T pbc="F F F"
O       -0.17470000       1.44690000       0.03750000
C       -0.01980000       0.05070000       0.02360000
C        0.36120000      -0.62390000       1.39040000
C       -1.07600000      -1.13570000       1.50310000
C       -1.75560000      -2.31970000       2.19910000
C       -3.05120000      -1.45210000       2.35720000
C       -2.27860000      -0.20740000       1.83830000
O       -2.52560000       0.11500000       0.45200000
C       -1.40570000      -0.68530000       0.05590000
H        0.69960000       1.83810000       0.13300000
H        0.61260000      -0.27990000      -0.81260000
H        1.09860000      -1.42410000       1.26690000
H        0.70440000       0.05480000       2.17750000
H       -1.83800000      -3.24750000       1.62570000
H       -1.29740000      -2.55550000       3.16470000
H       -3.87430000      -1.72770000       1.69490000
H       -3.42800000      -1.37150000       3.37940000
H       -2.23290000       0.67960000       2.47530000
H       -1.62540000      -1.34400000      -0.78960000
