13
Properties=species:S:1:pos:R:3 gdb_16261=T pbc="F F F"
O       -0.07160000       0.01200000      -0.02570000
C       -0.04660000       1.20000000       0.05910000
C       -1.14230000       2.29830000       0.18000000
C       -0.03140000       3.32460000      -0.07070000
N        0.89910000       3.17570000       1.04180000
C        1.04260000       2.25250000      -0.15650000
C        2.24310000       2.17570000      -0.90340000
C        3.25780000       2.07730000      -1.54270000
H       -1.86070000       2.19760000      -0.63820000
H       -1.66290000       2.38340000       1.13550000
H       -0.08560000       4.22470000      -0.66840000
H        1.64700000       3.86260000       0.93340000
H        4.15130000       1.98850000      -2.11020000
