20
Properties=species:S:1:pos:R:3 gdb_81988=T pbc="F F F"
C       -0.44320000       1.51810000       0.39630000
C       -0.11960000       0.04340000       0.19820000
C        0.29110000      -0.45600000      -1.19420000
C        1.61780000       0.10720000      -1.61380000
C        1.59050000      -1.03830000      -0.64270000
C        1.24660000      -0.55100000       0.78580000
C        2.23880000       0.39090000       1.47940000
C        0.96130000      -1.68360000       1.66430000
N        0.73900000      -2.57810000       2.36320000
H        0.34100000       2.17490000       0.00940000
H       -1.37100000       1.76860000      -0.12910000
H       -0.58850000       1.75390000       1.45570000
H       -0.94600000      -0.55980000       0.58100000
H       -0.39190000      -0.89760000      -1.90910000
H        1.93620000      -0.16440000      -2.61510000
H        1.93320000       1.10170000      -1.31290000
H        2.05870000      -1.99110000      -0.85440000
H        2.48970000       1.23770000       0.83800000
H        1.82270000       0.77900000       2.41350000
H        3.16460000      -0.14110000       1.71740000
