18
Properties=species:S:1:pos:R:3 gdb_107982=T pbc="F F F"
O       -0.00480000       1.37400000       0.00400000
C        0.03500000      -0.04100000       0.06950000
C       -1.35510000      -0.60210000       0.16380000
C       -2.43680000      -0.33700000       1.22110000
C       -3.14950000      -1.06680000       0.08110000
N       -2.36290000      -0.28210000      -0.99100000
C       -1.98820000      -1.58010000      -1.69850000
C       -1.92140000      -1.99610000      -0.23040000
O       -1.53250000      -3.18030000       0.36610000
H       -0.68300000       1.59440000      -0.64670000
H        0.55970000      -0.47380000      -0.79810000
H        0.61090000      -0.30550000       0.96280000
H       -2.33500000      -0.87810000       2.16370000
H       -2.71160000       0.70860000       1.37530000
H       -4.20940000      -1.27850000      -0.07150000
H       -2.79970000      -1.98170000      -2.31450000
H       -1.05890000      -1.52400000      -2.27270000
H       -2.13680000      -3.88000000       0.09360000
