17
Properties=species:S:1:pos:R:3 gdb_19933=T pbc="F F F"
C        0.19390000       1.58920000       0.15220000
C        1.31690000       0.64890000      -0.06600000
C        2.12840000       0.23090000       1.15600000
C        1.10390000      -0.39290000       2.10520000
O        0.42310000       0.53700000       2.99170000
C       -0.86720000       0.12790000       2.47710000
C       -0.20220000      -0.60060000       1.29960000
N       -0.07570000       0.14230000       0.03410000
H        0.13290000       2.06590000       1.12620000
H       -0.19740000       2.17860000      -0.67250000
H        1.78520000       0.57180000      -1.04330000
H        2.87910000      -0.51640000       0.87770000
H        2.65030000       1.06610000       1.63320000
H        1.49700000      -1.24530000       2.67100000
H       -1.38340000      -0.54180000       3.17670000
H       -1.51510000       0.97780000       2.23980000
H       -0.53630000      -1.61650000       1.08320000
