16
Properties=species:S:1:pos:R:3 gdb_111674=T pbc="F F F"
O        0.01310000       1.27630000       0.50430000
C        0.05070000       0.04290000      -0.18460000
C       -1.31820000      -0.60710000      -0.22650000
C       -1.58260000      -2.06660000      -0.12120000
C       -0.50470000      -3.02130000       0.37320000
O       -0.15050000      -2.52860000       1.67270000
C       -0.90830000      -1.44320000       2.00060000
O       -0.71900000      -0.79170000       2.98480000
N       -1.91300000      -1.19570000       1.01700000
H       -0.18610000       1.08950000       1.43060000
H        0.35810000       0.26990000      -1.21100000
H        0.80510000      -0.63590000       0.23710000
H       -2.05650000      -0.01710000      -0.76380000
H       -2.42190000      -2.49530000      -0.65940000
H       -0.90130000      -4.03560000       0.47640000
H        0.39710000      -3.05580000      -0.24490000
