16
Properties=species:S:1:pos:R:3 gdb_46195=T pbc="F F F"
O       -0.16560000       0.00500000      -0.28770000
C       -0.11640000       1.17860000      -0.07550000
C       -1.10130000       2.27900000       0.34030000
O       -0.02240000       3.23820000       0.29510000
C        0.96180000       2.26330000      -0.09680000
C        2.36520000       2.26490000       0.56400000
C        2.86700000       1.45000000      -0.65190000
C        1.99280000       2.60040000      -1.20570000
N        2.71570000       3.52010000      -0.22760000
H       -1.89530000       2.49730000      -0.38340000
H       -1.53220000       2.17020000       1.34240000
H        2.61070000       2.15250000       1.62010000
H        3.93140000       1.56360000      -0.85430000
H        2.49730000       0.43130000      -0.76720000
H        1.79840000       2.88420000      -2.24000000
H        2.07990000       4.27440000       0.04910000
