18
Properties=species:S:1:pos:R:3 gdb_61987=T pbc="F F F"
C        0.32190000       1.12320000       0.55610000
C       -0.32880000      -0.12110000      -0.07280000
C       -1.82170000       0.09370000      -0.43630000
N       -2.62490000       0.42420000       0.72960000
C       -3.02300000      -0.58970000       1.57920000
N       -3.97650000      -0.21360000       2.51170000
O       -2.58390000      -1.72240000       1.49680000
C        0.40010000      -0.53830000      -1.27290000
N        0.96610000      -0.84770000      -2.23210000
H        1.35250000       0.91670000       0.85340000
H        0.33260000       1.95920000      -0.15020000
H       -0.24480000       1.42050000       1.44120000
H       -0.29860000      -0.95240000       0.63960000
H       -1.90790000       0.91670000      -1.15090000
H       -2.19950000      -0.81700000      -0.91110000
H       -3.21380000       1.23800000       0.66150000
H       -3.99090000       0.74610000       2.82200000
H       -4.08920000      -0.89040000       3.25090000
