20
Properties=species:S:1:pos:R:3 gdb_81422=T pbc="F F F"
C        0.11220000       1.43690000      -0.06210000
C       -0.04580000      -0.06510000      -0.05380000
C       -0.57600000      -0.76350000       1.14750000
N        0.85410000      -0.90890000       0.81340000
C        1.16910000      -2.01030000      -0.15980000
C       -0.09540000      -2.30290000      -1.00670000
C        0.05890000      -0.81450000      -1.39230000
C        1.62230000      -1.13400000      -1.36760000
O        2.57870000      -0.14490000      -1.15650000
H        0.91470000       1.74480000      -0.73820000
H       -0.81490000       1.91450000      -0.39910000
H        0.33770000       1.81010000       0.94120000
H       -0.74230000      -0.16270000       2.03820000
H       -1.23710000      -1.61880000       1.07630000
H        1.78900000      -2.79040000       0.28090000
H        0.13640000      -2.97020000      -1.83870000
H       -1.01310000      -2.64000000      -0.52860000
H       -0.43610000      -0.37550000      -2.25780000
H        1.92690000      -1.71440000      -2.24140000
H        2.50450000       0.10980000      -0.22650000
