19
Properties=species:S:1:pos:R:3 gdb_75524=T pbc="F F F"
C       -0.00320000       1.50640000       0.22710000
C       -0.05630000       0.02900000      -0.07440000
C       -1.14390000      -0.69870000       0.21290000
C       -1.39880000      -2.15440000      -0.04840000
C       -0.49820000      -2.75830000      -1.12510000
N        0.90990000      -2.75810000      -0.74690000
C        1.73520000      -1.66430000      -0.79440000
O        2.94240000      -1.75480000      -0.94070000
N        1.14090000      -0.40970000      -0.66810000
H        0.80350000       1.73550000       0.93480000
H        0.19120000       2.08550000      -0.68450000
H       -0.94400000       1.85370000       0.65500000
H       -1.95610000      -0.15880000       0.68890000
H       -1.28840000      -2.74330000       0.87300000
H       -2.44370000      -2.28050000      -0.36300000
H       -0.78050000      -3.80080000      -1.29300000
H       -0.64910000      -2.22480000      -2.07350000
H        1.43100000      -3.60170000      -0.92880000
H        1.85870000       0.29510000      -0.74700000
