19
Properties=species:S:1:pos:R:3 gdb_55359=T pbc="F F F"
C        0.00630000       1.50150000      -0.08910000
C        0.08290000      -0.00620000       0.06830000
O        1.12270000      -0.59370000       0.23370000
C       -1.26740000      -0.73510000       0.04310000
O       -1.07000000      -2.08450000      -0.32890000
C       -2.04810000      -2.90270000       0.30880000
C       -2.39610000      -2.19550000       1.60420000
C       -1.23600000      -1.68970000       2.42070000
C       -1.91390000      -0.77460000       1.43120000
H        0.97110000       1.94920000       0.15130000
H       -0.25870000       1.74860000      -1.12420000
H       -0.77550000       1.92720000       0.54940000
H       -1.94580000      -0.21900000      -0.65830000
H       -2.94760000      -3.00810000      -0.31880000
H       -1.60050000      -3.89340000       0.43940000
H       -3.34340000      -2.41410000       2.08270000
H       -1.41180000      -1.50000000       3.47340000
H       -0.23870000      -2.04040000       2.17490000
H       -2.49180000       0.07760000       1.76690000
