11
Properties=species:S:1:pos:R:3 gdb_5059=T pbc="F F F"
O       -0.20110000       0.42820000      -1.16370000
C       -0.07060000       1.28720000      -0.32930000
C       -1.23500000       1.88240000       0.42810000
N       -1.52010000       3.12750000       0.34940000
C       -0.70080000       4.04760000      -0.25800000
N        0.59130000       4.11720000      -0.22000000
C        1.34490000       3.06760000       0.24610000
N        1.12940000       1.80120000       0.13870000
H       -1.86760000       1.22940000       1.03150000
H       -1.23370000       4.88120000      -0.71270000
H        2.28900000       3.37070000       0.69820000
