20
Properties=species:S:1:pos:R:3 gdb_105384=T pbc="F F F"
C       -0.09820000       1.53530000      -0.05190000
C        0.15590000       0.04430000      -0.02410000
C        1.54970000      -0.52970000      -0.06770000
C        0.70780000      -0.69250000       1.17970000
C        1.16250000       0.02450000       2.45010000
O        2.48060000      -0.29330000       2.82770000
N        0.11550000      -2.00000000       1.39300000
C        0.73720000      -3.03500000       2.00190000
O        1.85550000      -3.00990000       2.48810000
H        0.71070000       2.09700000       0.42220000
H       -0.16870000       1.88260000      -1.08810000
H       -1.03430000       1.79880000       0.45270000
H       -0.58600000      -0.52940000      -0.57850000
H        1.73460000      -1.40870000      -0.67360000
H        2.38820000       0.15370000       0.01300000
H        1.13990000       1.10660000       2.29310000
H        0.43630000      -0.20040000       3.24880000
H        2.53570000      -1.26400000       2.82430000
H       -0.83420000      -2.14800000       1.08700000
H        0.10970000      -3.94570000       2.02180000
