17
Properties=species:S:1:pos:R:3 gdb_12053=T pbc="F F F"
C        0.02800000       1.67260000       0.37770000
C       -0.00430000       0.16570000       0.13370000
C        0.94100000      -0.44110000      -0.96300000
C        1.62160000      -1.27710000       0.12300000
N        2.16770000      -0.31430000       1.11390000
C        0.74420000      -0.71450000       1.17870000
C       -1.43310000      -0.32420000       0.01090000
O       -1.85300000      -1.08940000      -0.81890000
H        1.04490000       1.97730000       0.63320000
H       -0.28900000       2.22350000      -0.51430000
H       -0.63650000       1.95730000       1.20220000
H        0.36900000      -1.03610000      -1.67630000
H        1.58890000       0.26930000      -1.48100000
H        2.03980000      -2.27140000       0.03020000
H        2.65810000      -0.85500000       1.82650000
H        0.32920000      -1.16600000       2.07240000
H       -2.10860000       0.08310000       0.80010000
