19
Properties=species:S:1:pos:R:3 gdb_62803=T pbc="F F F"
C       -0.06570000       1.54500000      -0.16150000
C        0.00290000       0.03860000      -0.01230000
C       -1.21790000      -0.70560000      -0.53160000
C        1.28580000      -0.71340000      -0.19350000
O        2.42630000       0.03690000       0.24760000
C        1.96170000      -0.03240000       1.60690000
C        1.95060000       1.24810000       2.40460000
O        2.33060000       2.32470000       2.02840000
C        0.63680000      -0.68070000       1.18040000
H        0.89920000       2.01460000       0.02920000
H       -0.37090000       1.80090000      -1.18250000
H       -0.80560000       1.97700000       0.52170000
H       -1.39540000      -0.46410000      -1.58500000
H       -1.10120000      -1.79150000      -0.45010000
H       -2.11390000      -0.42350000       0.03210000
H        1.46360000      -1.52020000      -0.89620000
H        2.56830000      -0.75470000       2.17930000
H        1.55520000       1.09240000       3.43770000
H        0.12700000      -1.46000000       1.73100000
