16
Properties=species:S:1:pos:R:3 gdb_20851=T pbc="F F F"
C       -0.12840000       1.54410000      -0.02400000
C        0.10010000       0.02210000      -0.04930000
C        0.73890000      -0.50700000       1.19550000
N        2.04540000      -0.76800000       1.28740000
N        2.19730000      -1.19880000       2.52790000
N        1.09460000      -1.24520000       3.28220000
C        0.15120000      -0.80890000       2.44950000
N       -1.19540000      -0.76630000       2.80410000
H        0.82130000       2.07630000       0.08360000
H       -0.60840000       1.88180000      -0.94770000
H       -0.76990000       1.84340000       0.81260000
H       -0.85860000      -0.48880000      -0.20270000
H        0.73720000      -0.23670000      -0.90020000
H        3.08820000      -1.50470000       2.87970000
H       -1.32470000      -0.87840000       3.80130000
H       -1.67220000       0.06350000       2.47810000
