23
Properties=species:S:1:pos:R:3 gdb_103334=T pbc="F F F"
C        0.84790000      -0.85750000       1.18520000
C        0.02770000      -0.07850000       0.14860000
C       -1.44490000      -0.53790000       0.04570000
C       -2.21900000       0.14400000       1.19450000
C       -2.05920000      -0.59370000      -1.41490000
C       -1.16620000      -1.84850000      -1.66890000
C       -1.76130000      -2.05490000      -0.24870000
C       -3.11740000      -1.62210000      -0.92820000
O       -4.28480000      -1.25820000      -0.24090000
H        1.85750000      -0.44500000       1.27720000
H        0.38790000      -0.82600000       2.17850000
H        0.94210000      -1.91070000       0.90100000
H        0.02350000       0.98560000       0.41760000
H        0.53830000      -0.12760000      -0.81610000
H       -2.60360000       1.12630000       0.88890000
H       -3.04460000      -0.45440000       1.58030000
H       -1.55090000       0.32990000       2.04080000
H       -2.22000000       0.24830000      -2.09390000
H       -1.51530000      -2.53300000      -2.44590000
H       -0.09300000      -1.69930000      -1.74520000
H       -1.59770000      -2.90490000       0.41650000
H       -3.44330000      -2.33280000      -1.69330000
H       -4.20350000      -0.35890000       0.08210000
