19
Properties=species:S:1:pos:R:3 gdb_74718=T pbc="F F F"
C       -0.00890000       1.50750000       0.04270000
C        0.02910000       0.02200000      -0.05390000
C        0.02000000      -0.79500000      -1.10760000
C        0.00270000      -2.24090000      -0.57190000
C        0.92850000      -2.03580000       0.66840000
C        0.03240000      -0.89240000       1.20610000
O        0.47780000      -0.31370000       2.40550000
C       -1.31730000      -1.64500000       1.23210000
C       -1.33230000      -2.45280000       0.17370000
H        0.81380000       1.88180000       0.66320000
H        0.05600000       1.97870000      -0.94170000
H       -0.94010000       1.85270000       0.51570000
H       -0.02980000      -0.52830000      -2.15560000
H        0.27920000      -3.01650000      -1.28480000
H        0.96210000      -2.89710000       1.34050000
H        1.93570000      -1.70070000       0.40840000
H       -0.19590000       0.29780000       2.71930000
H       -2.08790000      -1.47860000       1.97440000
H       -2.12820000      -3.10430000      -0.16250000
