14
Properties=species:S:1:pos:R:3 gdb_129715=T pbc="F F F"
N       -0.02600000       1.45430000      -0.15650000
C       -0.02390000       0.07820000      -0.08590000
C       -1.17890000      -0.69180000      -0.06870000
O       -2.37210000      -0.03510000      -0.06140000
C       -1.04660000      -2.08410000      -0.05430000
N        0.11800000      -2.71920000      -0.04990000
N        1.23610000      -1.99180000      -0.05660000
C        1.16530000      -0.67400000      -0.07330000
O        2.32880000       0.01980000      -0.07040000
H        0.82540000       1.89920000       0.15020000
H       -0.87250000       1.90230000       0.15950000
H       -3.09080000      -0.67540000      -0.03120000
H       -1.93190000      -2.71730000      -0.04420000
H        3.03150000      -0.64580000      -0.04740000
