19
Properties=species:S:1:pos:R:3 gdb_22662=T pbc="F F F"
C        0.03390000       1.51370000       0.32230000
C       -0.02440000       0.04140000      -0.12560000
C       -1.41400000      -0.51470000      -0.16830000
C       -2.11660000      -0.93430000      -1.25010000
C       -3.42670000      -1.36310000      -0.80570000
C       -3.50370000      -1.06590000       0.68650000
N       -2.11970000      -0.69070000       1.01740000
N       -4.41000000      -1.91000000      -1.41860000
O       -4.10100000      -2.08730000      -2.78870000
H        1.06510000       1.87750000       0.30470000
H       -0.56360000       2.14680000      -0.34020000
H       -0.34050000       1.64650000       1.34290000
H        0.41680000      -0.05470000      -1.12150000
H        0.58260000      -0.56840000       0.55580000
H       -1.75190000      -1.00380000      -2.26120000
H       -4.19710000      -0.23860000       0.88660000
H       -3.83470000      -1.93140000       1.26760000
H       -1.99440000       0.00180000       1.74090000
H       -4.90160000      -2.50770000      -3.11740000
