18
Properties=species:S:1:pos:R:3 gdb_74108=T pbc="F F F"
C       -0.25420000       1.49850000       0.07320000
C       -0.06850000       0.01290000      -0.02180000
C       -0.25000000      -0.67460000      -1.15760000
C        0.09230000      -2.11090000      -1.26500000
O        0.45090000      -2.62840000      -2.30050000
N       -0.04170000      -2.84530000      -0.07240000
C        1.11130000      -3.20810000       0.73850000
C        0.12300000      -2.18570000       1.21460000
C        0.41550000      -0.69000000       1.23270000
H        0.66810000       1.98630000       0.41390000
H       -0.54030000       1.93430000      -0.88660000
H       -1.02660000       1.74600000       0.81260000
H       -0.51950000      -0.18180000      -2.08580000
H        1.10480000      -4.21150000       1.15510000
H        2.08520000      -2.85700000       0.40430000
H       -0.60450000      -2.51480000       1.95400000
H        1.48870000      -0.48810000       1.35360000
H       -0.06440000      -0.24030000       2.10910000
