19
Properties=species:S:1:pos:R:3 gdb_85357=T pbc="F F F"
C       -0.12300000       1.55280000       0.01840000
C        0.05730000       0.02890000       0.00830000
C        0.78970000      -0.44690000      -1.22290000
C        1.58710000      -1.52450000      -1.25310000
C        1.80310000      -2.38040000      -0.06520000
O        2.54210000      -3.34360000      -0.09540000
C        1.01800000      -1.99490000       1.18590000
C        0.76240000      -0.48520000       1.28490000
O        1.96060000       0.22970000       1.55900000
H        0.84370000       2.05760000       0.08540000
H       -0.63430000       1.89350000      -0.88740000
H       -0.71960000       1.86390000       0.88130000
H       -0.94460000      -0.42950000      -0.01140000
H        0.64810000       0.13780000      -2.13060000
H        2.10670000      -1.82960000      -2.15630000
H        0.05550000      -2.52430000       1.13890000
H        1.55330000      -2.36370000       2.06380000
H        0.12050000      -0.27970000       2.14800000
H        2.57630000       0.07580000       0.83300000
