18
Properties=species:S:1:pos:R:3 gdb_60653=T pbc="F F F"
N        0.28540000       0.50860000       1.01960000
C       -0.03830000      -0.52890000       0.21620000
O        0.75410000      -1.36910000      -0.18520000
C       -1.50740000      -0.59760000      -0.23970000
O       -1.66810000      -1.70940000      -1.07760000
C       -2.50960000      -0.71800000       0.91440000
C       -2.25710000      -1.77120000       2.01090000
C       -2.30600000      -0.57230000       2.97760000
O       -2.41690000       0.36970000       1.87730000
H        1.22130000       0.55260000       1.39020000
H       -0.46260000       1.02520000       1.46260000
H       -1.72950000       0.33760000      -0.78060000
H       -0.77490000      -2.09530000      -1.13350000
H       -3.51430000      -0.76450000       0.47870000
H       -3.03540000      -2.52350000       2.13530000
H       -1.28750000      -2.26700000       1.94020000
H       -3.18900000      -0.52660000       3.62480000
H       -1.40940000      -0.38790000       3.57920000
