20
Properties=species:S:1:pos:R:3 gdb_92032=T pbc="F F F"
O       -0.10620000       1.42190000       0.10330000
C        0.00160000       0.00270000       0.03900000
C        0.77960000      -0.55180000       1.24610000
C        0.73150000      -2.07350000       1.29810000
C       -0.08780000      -2.78480000       2.32290000
N       -0.51350000      -2.75040000       0.92940000
C       -1.63640000      -1.94950000       0.49470000
C       -2.20760000      -0.75260000       1.22530000
C       -1.40080000      -0.55740000      -0.03820000
H        0.78460000       1.78670000       0.07400000
H        0.52980000      -0.29080000      -0.88400000
H        1.82250000      -0.22110000       1.18530000
H        0.36500000      -0.10010000       2.15270000
H        1.61800000      -2.57420000       0.91200000
H        0.21060000      -3.76160000       2.69580000
H       -0.62190000      -2.16990000       3.04490000
H       -2.36120000      -2.55580000      -0.04050000
H       -3.28090000      -0.60630000       1.17320000
H       -1.77180000      -0.43970000       2.16620000
H       -1.93940000      -0.26480000      -0.93370000
