18
Properties=species:S:1:pos:R:3 gdb_114717=T pbc="F F F"
C       -0.12090000       1.59180000      -0.14140000
C        0.11990000       0.08270000      -0.03840000
N        0.74290000      -0.48910000      -1.21790000
C        0.02960000      -0.69610000      -2.47050000
C        1.11250000      -1.17690000      -3.42170000
O        2.15960000      -0.22650000      -3.59480000
C        2.35950000      -1.30540000      -2.66110000
C        2.05910000      -0.88190000      -1.23680000
O        2.82110000      -0.89210000      -0.29240000
H        0.82250000       2.12210000      -0.29780000
H       -0.79470000       1.84120000      -0.96730000
H       -0.57610000       1.96280000       0.78210000
H        0.79570000      -0.13790000       0.79190000
H       -0.82650000      -0.44080000       0.15150000
H       -0.75900000      -1.45390000      -2.35790000
H       -0.43650000       0.22820000      -2.83340000
H        0.86290000      -1.78630000      -4.28430000
H        3.17120000      -1.99220000      -2.87090000
