17
Properties=species:S:1:pos:R:3 gdb_39933=T pbc="F F F"
C        0.86880000       1.33740000       0.00100000
O        1.34730000       0.00130000      -0.01050000
C       -0.10570000       0.22270000       0.00430000
C       -0.70770000      -0.15240000       1.30310000
C       -1.88280000      -0.74300000       1.58300000
C       -2.93910000      -1.18320000       0.69850000
C       -2.95170000      -1.17610000      -0.65140000
C       -1.91220000      -0.72650000      -1.55090000
C       -0.73210000      -0.13880000      -1.28690000
H        1.03930000       1.89720000       0.92160000
H        1.02210000       1.90680000      -0.91680000
H       -0.05880000       0.08690000       2.14210000
H       -2.08350000      -0.90900000       2.63900000
H       -3.82090000      -1.57510000       1.19850000
H       -3.84290000      -1.56280000      -1.13880000
H       -2.13280000      -0.88150000      -2.60470000
H       -0.09890000       0.10940000      -2.13540000
