17
Properties=species:S:1:pos:R:3 gdb_34199=T pbc="F F F"
C        0.06650000      -1.21200000       0.11190000
C        0.02450000      -0.01030000       0.05470000
C       -0.02720000       1.42370000      -0.01540000
C       -1.11890000       2.17620000       0.81480000
C       -1.26760000       3.20470000      -0.32660000
O       -0.18910000       4.16660000      -0.32860000
C        0.68410000       3.24140000      -1.01420000
C        1.31790000       2.22200000      -0.04370000
C       -0.49170000       2.26540000      -1.28920000
H        0.10490000      -2.27170000       0.16400000
H       -2.01710000       1.55800000       0.90110000
H       -0.83440000       2.55690000       1.79880000
H       -2.23660000       3.67260000      -0.50710000
H        1.30980000       3.73930000      -1.75650000
H        1.70010000       2.60460000       0.90590000
H        2.09200000       1.63520000      -0.54650000
H       -0.81970000       1.86000000      -2.24170000
