19
Properties=species:S:1:pos:R:3 gdb_68395=T pbc="F F F"
O       -0.15740000       1.38090000       0.05320000
C        0.03210000      -0.00660000       0.03310000
C        0.88240000      -0.70760000      -1.07930000
C        1.11760000      -1.80990000      -0.00570000
C        0.97060000      -0.69640000       1.06560000
O        0.05100000      -2.75130000       0.06420000
C       -1.23210000      -2.18500000      -0.04470000
C       -1.89160000      -1.49760000       1.12970000
C       -1.32890000      -0.68590000      -0.01770000
H        0.70920000       1.80100000       0.06880000
H        0.38940000      -0.98580000      -2.01300000
H        1.81440000      -0.17260000      -1.28640000
H        2.03560000      -2.39570000      -0.03870000
H        1.90330000      -0.13130000       1.16550000
H        0.60270000      -0.96380000       2.05640000
H       -1.85800000      -2.76120000      -0.71890000
H       -2.97180000      -1.57170000       1.20010000
H       -1.38290000      -1.49960000       2.08530000
H       -2.02200000      -0.19290000      -0.69240000
