18
Properties=species:S:1:pos:R:3 gdb_121782=T pbc="F F F"
C       -0.05200000       1.38280000      -0.03660000
O       -0.05170000      -0.02530000       0.01790000
C        0.69840000      -0.53270000       1.09510000
C        0.64850000      -2.05400000       1.01090000
C        1.37960000      -2.74890000       2.19100000
C        1.21750000      -4.20280000       2.14500000
C        1.05750000      -5.39070000       2.09130000
C        2.80790000      -2.38540000       2.22370000
N        3.92030000      -2.07500000       2.24490000
H        0.96560000       1.78650000      -0.15420000
H       -0.65130000       1.67450000      -0.90200000
H       -0.49500000       1.82590000       0.86930000
H        1.74030000      -0.17580000       1.04990000
H        0.27950000      -0.18740000       2.05800000
H       -0.39360000      -2.38450000       1.02370000
H        1.08700000      -2.38700000       0.06650000
H        0.94190000      -2.37950000       3.12960000
H        0.92500000      -6.44400000       2.05020000
