18
Properties=species:S:1:pos:R:3 gdb_9364=T pbc="F F F"
C        0.08150000       1.33740000       0.00780000
O        0.01110000      -0.06830000       0.00130000
C       -1.31660000      -0.54700000       0.01150000
C       -1.26050000      -2.06740000       0.00310000
C       -2.63930000      -2.70890000       0.01290000
O       -3.65830000      -2.06360000       0.02650000
C       -2.64330000      -4.23630000       0.00420000
O       -3.96420000      -4.70730000       0.01470000
H        1.13900000       1.61270000      -0.00080000
H       -0.40750000       1.77570000      -0.87660000
H       -0.39060000       1.76660000       0.90580000
H       -1.85770000      -0.19060000       0.90160000
H       -1.87440000      -0.18150000      -0.86460000
H       -0.70480000      -2.41490000      -0.87760000
H       -0.68840000      -2.42390000       0.86960000
H       -2.07910000      -4.56470000      -0.88640000
H       -2.06150000      -4.57470000       0.87970000
H       -3.93770000      -5.66840000       0.00900000
