21
Properties=species:S:1:pos:R:3 gdb_122491=T pbc="F F F"
C       -0.12430000       1.56600000       0.09270000
C        0.13760000       0.06620000      -0.06770000
C        0.76110000      -0.56960000       1.17890000
C        1.02710000      -2.07350000       1.02060000
C        1.65700000      -2.66470000       2.25940000
O        0.81510000      -2.95420000       3.36780000
C        1.47500000      -4.05970000       2.73830000
C        0.59330000      -5.03050000       2.02350000
O        0.92130000      -6.16500000       1.78480000
H        0.80420000       2.11060000       0.29690000
H       -0.56770000       1.99210000      -0.81250000
H       -0.81080000       1.76110000       0.92380000
H       -0.80350000      -0.44790000      -0.30290000
H        0.79800000      -0.10210000      -0.92890000
H        1.70360000      -0.05720000       1.41740000
H        0.10170000      -0.41460000       2.04240000
H        0.09070000      -2.59140000       0.79100000
H        1.70300000      -2.24500000       0.17230000
H        2.60620000      -2.20460000       2.54640000
H        2.28240000      -4.52070000       3.30590000
H       -0.40230000      -4.62740000       1.73980000
