23
Properties=species:S:1:pos:R:3 gdb_57645=T pbc="F F F"
C        0.02150000       1.65440000       0.17270000
C        0.05590000       0.11320000       0.08220000
C        0.89240000      -0.44920000       1.25200000
C       -1.35560000      -0.50840000       0.02660000
C       -2.24060000      -0.24860000       1.22920000
C       -3.15580000       0.95240000       1.28540000
C       -3.73310000      -0.42890000       1.10510000
C        0.81270000      -0.22740000      -1.19780000
O        0.38400000      -0.86080000      -2.12680000
H        1.03300000       2.07370000       0.13090000
H       -0.55840000       2.08910000      -0.64780000
H       -0.43490000       1.96940000       1.11420000
H        0.48560000      -0.11900000       2.21200000
H        0.90410000      -1.54390000       1.24380000
H        1.92950000      -0.09940000       1.19900000
H       -1.85930000      -0.14630000      -0.87740000
H       -1.24320000      -1.59000000      -0.11710000
H       -1.82210000      -0.55960000       2.18280000
H       -3.30080000       1.45230000       2.23710000
H       -3.16950000       1.61960000       0.42980000
H       -4.12900000      -0.68760000       0.12830000
H       -4.27090000      -0.87600000       1.93370000
H        1.85330000       0.17930000      -1.21700000
