19
Properties=species:S:1:pos:R:3 gdb_104530=T pbc="F F F"
C       -1.44550000      -0.04360000      -0.08310000
O       -0.03560000      -0.01900000       0.02370000
C        0.66410000      -0.67800000      -0.99560000
C        0.40400000      -0.11080000      -2.40590000
C        0.68120000       1.31530000      -2.51160000
C        0.91480000       2.49160000      -2.58740000
C        2.15750000      -0.82750000      -0.65300000
O        2.10960000      -2.24690000      -0.91930000
C        0.66940000      -2.23230000      -0.96650000
H       -1.81140000       0.58150000      -0.90840000
H       -1.82970000      -1.06610000      -0.21440000
H       -1.83700000       0.35720000       0.85440000
H        1.03460000      -0.66960000      -3.10790000
H       -0.63250000      -0.31550000      -2.70180000
H        1.12070000       3.53090000      -2.65690000
H        2.87610000      -0.30560000      -1.29280000
H        2.36260000      -0.60760000       0.40120000
H        0.21950000      -2.64080000      -0.05190000
H        0.28020000      -2.76570000      -1.84160000
