19
Properties=species:S:1:pos:R:3 gdb_95030=T pbc="F F F"
O        0.23100000       1.26100000      -0.52410000
C        0.04540000      -0.04590000      -0.00420000
C        0.43440000      -0.17610000       1.50070000
O       -0.59480000      -0.87590000       2.18980000
C       -1.76280000      -0.96040000       1.38870000
C       -2.86830000       0.09940000       1.53810000
C       -2.34160000       1.48960000       1.33120000
C       -2.54200000       0.62440000       0.12550000
C       -1.43890000      -0.43830000      -0.03290000
H        1.17650000       1.43040000      -0.57950000
H        0.62430000      -0.76930000      -0.59520000
H        1.36960000      -0.73210000       1.64230000
H        0.57470000       0.83240000       1.91480000
H       -2.14830000      -1.98190000       1.45000000
H       -3.83460000      -0.08340000       1.99220000
H       -3.08940000       2.26780000       1.45110000
H       -1.35330000       1.78710000       1.65960000
H       -3.22700000       0.90000000      -0.66580000
H       -1.66200000      -1.14850000      -0.82950000
