21
Properties=species:S:1:pos:R:3 gdb_103932=T pbc="F F F"
C        0.08020000       1.55130000      -0.01390000
C        0.01780000       0.02470000       0.11210000
C       -1.39680000      -0.54480000      -0.00910000
O       -2.23840000      -0.05060000       1.02350000
C       -2.10550000      -0.48490000      -1.41840000
C       -2.27270000      -2.00970000      -1.35700000
O       -3.42620000      -2.67950000      -1.72320000
C       -0.93910000      -2.68840000      -1.25140000
C       -1.56290000      -2.06940000      -0.01670000
H        1.11280000       1.90760000       0.04490000
H       -0.33360000       1.89420000      -0.96910000
H       -0.47340000       2.04600000       0.79210000
H        0.65670000      -0.42660000      -0.65490000
H        0.42380000      -0.28260000       1.08340000
H       -2.33940000       0.89860000       0.89640000
H       -3.06420000       0.03050000      -1.33300000
H       -1.53890000      -0.08290000      -2.26620000
H       -3.34480000      -2.93990000      -2.64740000
H       -0.99320000      -3.77270000      -1.26390000
H       -0.04380000      -2.27740000      -1.71220000
H       -1.79190000      -2.64930000       0.86850000
