19
Properties=species:S:1:pos:R:3 gdb_39976=T pbc="F F F"
C       -0.02580000       1.50320000       0.03660000
C        1.30300000       0.75550000       0.02630000
C       -0.00200000       0.01530000      -0.05490000
O       -0.43410000      -0.70910000       1.09110000
C       -0.64050000      -2.04000000       0.66140000
C       -1.71260000      -2.32470000      -0.37440000
C       -1.99010000      -1.04950000      -1.17030000
C       -0.44430000      -0.80570000      -1.24410000
C       -0.22280000      -2.26650000      -0.74690000
H       -0.34670000       1.93220000       0.97910000
H       -0.30760000       2.07480000      -0.84170000
H        1.92790000       0.82050000      -0.85860000
H        1.84150000       0.69420000       0.96520000
H       -0.45850000      -2.77390000       1.43660000
H       -2.36080000      -3.19050000      -0.29760000
H       -2.40510000      -1.27510000      -2.15570000
H       -2.58940000      -0.26840000      -0.69110000
H       -0.02890000      -0.49520000      -2.20120000
H        0.46760000      -3.01180000      -1.11780000
