16
Properties=species:S:1:pos:R:3 gdb_131239=T pbc="F F F"
O        0.25980000       1.35460000       0.05850000
C        0.13640000       0.01770000      -0.03790000
C        0.49150000      -0.78930000      -1.09590000
N        0.15200000      -2.03560000      -0.66270000
N       -0.37220000      -1.99470000       0.56840000
N       -0.38260000      -0.73850000       0.95270000
C        0.27640000      -3.30620000      -1.31650000
C        0.07000000      -3.43400000      -2.80060000
C        1.45060000      -3.60370000      -2.20780000
H       -0.08340000       1.59980000       0.92750000
H        0.92930000      -0.58460000      -2.05580000
H       -0.09990000      -4.08100000      -0.66180000
H       -0.45890000      -4.30880000      -3.16100000
H       -0.13280000      -2.52640000      -3.35800000
H        2.17110000      -2.80970000      -2.36880000
H        1.88220000      -4.59670000      -2.15580000
