13
Properties=species:S:1:pos:R:3 gdb_129222=T pbc="F F F"
N       -0.14850000       1.01490000       1.05090000
C        0.02110000       0.12790000       0.15500000
N       -1.17770000      -0.51690000      -0.25430000
N       -1.58540000      -1.29390000      -1.26540000
N       -0.86010000      -1.78300000      -2.16390000
C        0.54740000      -1.63320000      -2.28730000
N        1.12300000      -2.15890000      -3.30080000
C        1.48130000      -0.95450000      -1.34830000
N        1.27960000      -0.21410000      -0.33300000
H        0.76130000       1.38300000       1.32660000
H       -1.96830000      -0.20120000       0.29300000
H        0.40840000      -2.59900000      -3.88990000
H        2.51850000      -1.13210000      -1.63340000
