18
Properties=species:S:1:pos:R:3 gdb_62218=T pbc="F F F"
C        0.04630000       1.38940000      -0.21430000
C        0.03070000      -0.12850000      -0.04320000
O        0.75240000      -0.59910000       1.08310000
C        2.15520000      -0.55530000       0.96030000
C        2.72210000      -1.28310000       2.18610000
C        4.18120000      -1.29920000       2.18450000
N        5.33630000      -1.30180000       2.16430000
C       -1.38720000      -0.67090000       0.12590000
O       -2.35020000      -0.22210000      -0.43520000
H        1.03130000       1.75310000      -0.51650000
H       -0.68010000       1.66580000      -0.98210000
H       -0.23820000       1.87610000       0.72310000
H        0.42830000      -0.60600000      -0.95870000
H        2.48460000      -1.05530000       0.03650000
H        2.53100000       0.47670000       0.93380000
H        2.36440000      -0.79040000       3.09620000
H        2.34550000      -2.31090000       2.20600000
H       -1.44510000      -1.54340000       0.81230000
