20
Properties=species:S:1:pos:R:3 gdb_9920=T pbc="F F F"
O       -0.02690000       1.42210000      -0.22770000
C        0.03430000       0.03170000       0.05330000
C       -1.37310000      -0.53500000      -0.07340000
C       -1.44260000      -2.03680000       0.22770000
C       -2.84260000      -2.60750000       0.09680000
O       -3.78080000      -2.06770000       0.99510000
C       -3.35660000      -3.04770000      -1.25320000
C       -3.03620000      -4.06650000      -0.17350000
H        0.85870000       1.78620000      -0.13950000
H        0.70850000      -0.48760000      -0.64810000
H        0.41890000      -0.15390000       1.06970000
H       -2.02210000       0.01740000       0.61710000
H       -1.74030000      -0.33460000      -1.08740000
H       -0.77350000      -2.58170000      -0.44990000
H       -1.08450000      -2.22610000       1.24810000
H       -3.99440000      -1.17620000       0.69950000
H       -4.40450000      -2.86760000      -1.46610000
H       -2.69820000      -2.97880000      -2.11280000
H       -2.15890000      -4.69280000      -0.29470000
H       -3.87370000      -4.54210000       0.32320000
