15
Properties=species:S:1:pos:R:3 gdb_30551=T pbc="F F F"
N       -0.16310000       1.30990000      -0.02820000
C        0.16100000       0.04790000       0.32810000
N        1.13590000      -0.63940000      -0.23070000
H        1.87910000      -0.15030000      -0.72200000
C        1.21490000      -2.03480000      -0.13570000
C        0.12420000      -2.83850000      -0.38870000
O        0.47110000      -4.11900000      -0.25520000
C        1.91850000      -4.17900000       0.12270000
O        2.40200000      -5.26620000       0.32200000
C        2.33590000      -2.82930000       0.16730000
H        0.38170000       1.80920000      -0.71310000
H       -0.69570000       1.87300000       0.61380000
H       -0.46590000      -0.47420000       1.03930000
H       -0.82130000      -2.60250000      -0.85640000
H        3.30370000      -2.51180000       0.51720000
