20
Properties=species:S:1:pos:R:3 gdb_96026=T pbc="F F F"
C       -0.58240000       1.39560000      -0.12660000
C        0.06900000       0.01440000      -0.08700000
C        1.32920000      -0.14760000      -0.95380000
C        1.94440000      -1.42050000      -0.37280000
O        1.60320000      -1.42700000       1.01660000
C        0.57150000      -0.48710000       1.28970000
C        1.13160000       0.62570000       2.20640000
C        1.67660000       0.08840000       3.45040000
N        2.09210000      -0.32470000       4.44610000
H        0.12210000       2.18730000       0.14810000
H       -0.94370000       1.61680000      -1.13550000
H       -1.44200000       1.45640000       0.54940000
H       -0.66800000      -0.72280000      -0.43040000
H        1.10480000      -0.23210000      -2.02000000
H        2.00080000       0.70890000      -0.82080000
H        1.52890000      -2.31610000      -0.85700000
H        3.03440000      -1.46310000      -0.46060000
H       -0.22830000      -1.00150000       1.83660000
H        1.92160000       1.18000000       1.68820000
H        0.34010000       1.33990000       2.45880000
