11
Properties=species:S:1:pos:R:3 gdb_24826=T pbc="F F F"
O       -0.01410000      -0.03540000       0.00390000
C       -0.01150000       1.16770000       0.00980000
N       -1.21780000       1.91870000       0.02910000
C       -1.17350000       3.18360000       0.03480000
O       -0.05670000       3.97090000       0.02430000
C        1.13010000       3.33540000       0.00590000
C        1.22650000       1.98950000      -0.00200000
C        2.50440000       1.36150000      -0.02160000
N        3.54910000       0.86480000      -0.03750000
H       -2.06360000       3.80530000       0.04940000
H        1.96780000       4.02110000      -0.00150000
