17
Properties=species:S:1:pos:R:3 gdb_28700=T pbc="F F F"
C        0.01850000       1.43720000      -0.05910000
C       -0.14490000      -0.03970000      -0.04470000
C       -1.22430000      -0.86700000      -0.06100000
C       -0.71700000      -2.20730000      -0.02730000
C        0.63800000      -2.10440000       0.01470000
C        1.74630000      -3.09990000       0.02200000
C        2.35790000      -3.28550000      -1.36430000
O        2.60130000      -4.35350000      -1.85910000
O        1.00080000      -0.78520000      -0.00010000
H        0.59320000       1.77100000      -0.93060000
H       -0.96200000       1.91690000      -0.09280000
H        0.54380000       1.79350000       0.83440000
H       -2.25840000      -0.56050000      -0.09010000
H       -1.28580000      -3.12420000      -0.03030000
H        2.54770000      -2.75500000       0.69040000
H        1.39850000      -4.07170000       0.37890000
H        2.56580000      -2.33270000      -1.90030000
