17
Properties=species:S:1:pos:R:3 gdb_64888=T pbc="F F F"
C       -0.05870000       1.52640000      -0.06680000
C        0.00890000       0.00650000      -0.00830000
C        1.32560000      -0.71420000      -0.21660000
C        0.71700000      -0.70580000       1.17120000
C        1.35710000       0.10220000       2.29170000
C        0.13550000      -1.94600000       1.63010000
N       -0.30460000      -2.93460000       2.03740000
C       -1.17020000      -0.63260000      -0.54510000
N       -2.12550000      -1.10290000      -0.99590000
H        0.87710000       1.98150000       0.26070000
H       -0.24530000       1.84560000      -1.09590000
H       -0.87040000       1.90760000       0.55890000
H        1.31770000      -1.64320000      -0.77280000
H        2.20160000      -0.09250000      -0.36700000
H        1.86530000       0.98740000       1.90690000
H        0.60930000       0.41920000       3.02380000
H        2.09880000      -0.51240000       2.80920000
