18
Properties=species:S:1:pos:R:3 gdb_12389=T pbc="F F F"
C        0.00850000       1.53730000      -0.05930000
C        0.10020000       0.02470000       0.02430000
O        0.74560000      -0.44920000      -1.15610000
C        0.85220000      -1.86070000      -1.21730000
C        1.75700000      -2.38800000      -0.10610000
C        1.21950000      -1.94010000       1.26450000
C        0.84850000      -0.46370000       1.27790000
O        1.09090000       0.26490000       2.21060000
H        1.00860000       1.97380000      -0.11780000
H       -0.55600000       1.82710000      -0.94870000
H       -0.48450000       1.93470000       0.82960000
H       -0.91690000      -0.41210000       0.07710000
H       -0.14880000      -2.32230000      -1.14870000
H        1.26110000      -2.09170000      -2.20510000
H        1.82720000      -3.48050000      -0.15450000
H        2.76590000      -1.98790000      -0.25690000
H        0.29550000      -2.49500000       1.48630000
H        1.91960000      -2.13350000       2.08080000
