16
Properties=species:S:1:pos:R:3 gdb_99412=T pbc="F F F"
C        0.02560000       1.40520000       0.02980000
N       -0.02810000      -0.04120000      -0.06110000
C       -1.21640000      -0.70520000       0.03790000
N       -2.33490000      -0.09310000       0.10210000
C       -3.58160000      -0.81560000       0.15380000
C       -4.49230000      -0.22900000       1.22890000
O       -5.45760000      -0.79570000       1.66550000
C       -1.07090000      -2.15760000       0.03230000
N       -0.97780000      -3.31000000       0.04030000
H        1.05710000       1.72580000      -0.12400000
H       -0.60880000       1.85030000      -0.74100000
H       -0.32770000       1.76810000       1.00280000
H        0.81340000      -0.57020000       0.09180000
H       -4.11920000      -0.68150000      -0.79870000
H       -3.49600000      -1.89940000       0.31770000
H       -4.19280000       0.78750000       1.56730000
