19
Properties=species:S:1:pos:R:3 gdb_2043=T pbc="F F F"
C       -0.13270000       1.53230000       0.04180000
C       -0.01060000       0.00350000       0.00530000
C       -1.42680000      -0.54760000      -0.20500000
C        1.18050000      -0.64140000      -0.80530000
C        2.15580000      -0.12240000       0.29340000
C        0.92910000      -0.70590000       1.05660000
C        1.04030000      -1.91540000       0.08060000
H        0.80790000       2.06310000       0.18690000
H       -0.57310000       1.89640000      -0.89380000
H       -0.80820000       1.83600000       0.85010000
H       -1.84850000      -0.15390000      -1.13710000
H       -1.49260000      -1.63440000      -0.25150000
H       -2.08390000      -0.21420000       0.60670000
H        1.33090000      -0.60660000      -1.88700000
H        3.08620000      -0.68600000       0.39950000
H        2.35110000       0.94630000       0.35680000
H        0.78730000      -0.74620000       2.13920000
H        0.17190000      -2.55630000      -0.05880000
H        1.94590000      -2.51870000       0.18200000
