23
Properties=species:S:1:pos:R:3 gdb_68079=T pbc="F F F"
C       -0.03250000       1.54410000       0.01380000
C        0.03220000       0.02670000      -0.01700000
C        1.14640000      -0.65610000      -0.87620000
C        1.15450000      -1.77240000       0.19270000
O        2.40890000      -2.37800000       0.39900000
C        0.65570000      -0.70790000       1.20810000
C        0.03150000      -2.78900000      -0.06830000
C       -1.19160000      -2.10460000      -0.72310000
C       -1.33780000      -0.62080000      -0.31340000
H        0.93920000       1.97680000       0.27440000
H       -0.33040000       1.94880000      -0.96080000
H       -0.76340000       1.89400000       0.75300000
H        0.93690000      -0.92120000      -1.91610000
H        2.07940000      -0.08820000      -0.82790000
H        2.30010000      -3.07950000       1.05060000
H        1.50030000      -0.15170000       1.62480000
H       -0.01450000      -1.02810000       2.01340000
H        0.41170000      -3.58090000      -0.72330000
H       -0.24350000      -3.26310000       0.88420000
H       -1.06420000      -2.15030000      -1.80920000
H       -2.10980000      -2.65930000      -0.50720000
H       -1.96850000      -0.51950000       0.57920000
H       -1.84970000      -0.07440000      -1.11490000
