19
Properties=species:S:1:pos:R:3 gdb_102403=T pbc="F F F"
C        0.55620000       0.76430000       0.44070000
O       -0.48290000       0.49690000      -0.49790000
C       -1.51410000      -0.40490000      -0.09940000
C       -2.35000000       0.08010000       1.09700000
O       -1.69050000       0.00390000       2.34320000
C       -2.40950000      -0.49620000      -1.35900000
O       -1.65780000      -0.77660000      -2.51550000
C       -0.89640000      -1.78400000       0.14350000
O       -1.06790000      -2.44910000       1.13860000
H        1.26700000       1.41320000      -0.07570000
H        0.17660000       1.26090000       1.33680000
H        1.07540000      -0.15340000       0.74940000
H       -2.59770000       1.13330000       0.93070000
H       -3.29560000      -0.48550000       1.10800000
H       -1.51110000      -0.93460000       2.48910000
H       -3.14340000      -1.30000000      -1.24220000
H       -2.95910000       0.45520000      -1.44650000
H       -0.92720000      -0.14490000      -2.50800000
H       -0.26630000      -2.14640000      -0.69300000
