15
Properties=species:S:1:pos:R:3 gdb_15058=T pbc="F F F"
C        0.25710000       1.41100000       0.20320000
O       -0.07270000       0.04270000       0.02010000
C        0.45400000      -0.52810000      -1.15120000
C        1.93650000      -0.57050000      -1.11900000
N        3.09060000      -0.58810000      -1.07030000
C       -0.11730000      -1.93100000      -1.26920000
C       -1.35240000      -2.16110000      -2.02170000
O       -0.07420000      -2.50000000      -2.56950000
H        1.33970000       1.55550000       0.31160000
H       -0.10180000       2.02270000      -0.63730000
H       -0.24260000       1.73060000       1.11900000
H        0.16180000       0.04350000      -2.04700000
H        0.14900000      -2.59880000      -0.45150000
H       -1.98800000      -3.00420000      -1.75970000
H       -1.85750000      -1.32150000      -2.49660000
