14
Properties=species:S:1:pos:R:3 gdb_42787=T pbc="F F F"
N       -0.09080000       1.26520000      -0.27190000
C       -0.04550000       0.04230000       0.03160000
O        1.09630000      -0.59230000       0.43830000
C        1.07740000      -2.00480000       0.72600000
C       -0.33440000      -2.56810000       0.63600000
O       -0.89890000      -2.10520000      -0.62240000
C       -1.26990000      -0.83990000       0.00430000
C       -1.32150000      -1.61760000       1.34010000
O       -1.92920000      -1.58130000       2.35950000
H        0.83020000       1.69850000      -0.17540000
H        1.72100000      -2.50030000      -0.00850000
H        1.49810000      -2.14490000       1.72720000
H       -0.38560000      -3.64900000       0.78150000
H       -2.14010000      -0.35140000      -0.42870000
