22
Properties=species:S:1:pos:R:3 gdb_103879=T pbc="F F F"
C       -0.04380000       0.84650000      -0.61680000
C        0.22250000      -0.54330000      -0.01980000
C        0.86910000      -0.53200000       1.36130000
C        0.07410000       0.18390000       2.44010000
C        1.71170000      -1.70100000       1.76340000
N        2.32280000      -0.39490000       1.54480000
C        3.27480000      -0.17850000       0.44960000
C        3.36630000      -1.17500000      -0.62360000
C        3.48470000      -2.01030000      -1.48150000
H        0.87820000       1.42840000      -0.71770000
H       -0.48540000       0.75490000      -1.61390000
H       -0.73650000       1.43010000      -0.00320000
H       -0.73120000      -1.08110000       0.06580000
H        0.83880000      -1.12260000      -0.71090000
H       -0.93280000      -0.24100000       2.52630000
H        0.57510000       0.09120000       3.40640000
H       -0.02910000       1.25140000       2.22100000
H        1.71480000      -2.05820000       2.79150000
H        1.88190000      -2.47100000       1.01320000
H        3.07280000       0.80810000       0.01650000
H        4.26770000      -0.10550000       0.91290000
H        3.58290000      -2.73820000      -2.24880000
