17
Properties=species:S:1:pos:R:3 gdb_65198=T pbc="F F F"
O        0.22230000       1.36660000      -0.25650000
C        0.12620000      -0.00850000      -0.07330000
C        1.27320000      -0.80180000      -0.62780000
C        1.11150000      -0.67420000       0.87020000
C       -1.24640000      -0.59110000      -0.14060000
O       -2.26120000       0.03220000       0.64500000
C       -2.43370000       0.05150000      -0.76720000
C       -2.45700000       1.39070000      -1.44220000
O       -2.34850000       2.44830000      -0.87670000
H       -0.47610000       1.79390000       0.25910000
H        1.07080000      -1.75950000      -1.09540000
H        2.05510000      -0.21990000      -1.10110000
H        1.78480000      -0.00290000       1.38940000
H        0.79730000      -1.54360000       1.43760000
H       -1.26500000      -1.68230000      -0.10290000
H       -3.20030000      -0.62630000      -1.15390000
H       -2.64460000       1.32970000      -2.53670000
