14
Properties=species:S:1:pos:R:3 gdb_45386=T pbc="F F F"
N        0.00380000       1.23940000      -0.45130000
C        0.03460000       0.05590000      -0.05690000
O        1.04880000      -0.69020000       0.53190000
C        0.23250000      -1.89000000       0.57780000
C       -0.60980000      -1.97770000       1.84840000
O       -1.65000000      -1.15190000       1.26400000
C       -0.96970000      -1.09860000      -0.01960000
C       -1.77930000      -1.41290000      -1.16010000
C       -2.44420000      -1.68390000      -2.12320000
H        0.88630000       1.72370000      -0.27760000
H        0.73170000      -2.75350000       0.14570000
H       -0.98610000      -2.98230000       2.07290000
H       -0.16230000      -1.52940000       2.74020000
H       -3.03680000      -1.91150000      -2.97520000
