16
Properties=species:S:1:pos:R:3 gdb_70139=T pbc="F F F"
O        0.02460000       1.35450000       0.02470000
C        0.02960000      -0.02810000      -0.01340000
C       -0.48380000      -0.70110000      -1.26080000
C       -1.30220000      -0.80010000       0.00820000
N       -1.39670000      -2.06080000       0.66460000
C       -0.32030000      -2.58440000       1.08690000
N        0.94710000      -1.99900000       1.04590000
C        1.13050000      -0.65130000       0.75910000
N        2.10650000       0.08910000       1.12470000
H        0.86590000       1.59210000       0.44940000
H       -0.84430000      -0.01890000      -2.02170000
H       -0.00130000      -1.60180000      -1.62470000
H       -2.20270000      -0.19760000       0.05420000
H       -0.33180000      -3.57090000       1.54630000
H        1.68500000      -2.46100000       1.55700000
H        2.78810000      -0.39440000       1.70790000
