19
Properties=species:S:1:pos:R:3 gdb_52727=T pbc="F F F"
C       -0.10320000       1.46370000       0.01730000
C        0.00680000       0.01180000      -0.00290000
C        0.09740000      -1.18910000      -0.00340000
C        0.20510000      -2.64680000      -0.04350000
C       -1.17680000      -3.32660000      -0.04130000
C        1.04510000      -3.05000000      -1.26890000
O        1.30600000      -4.45710000      -1.24270000
C        0.91860000      -5.20550000      -2.29300000
O        1.10360000      -6.38310000      -2.35070000
H        0.23390000       1.87420000       0.97530000
H        0.50630000       1.91920000      -0.77090000
H       -1.13860000       1.78660000      -0.13640000
H        0.75700000      -2.98710000       0.84310000
H       -1.75780000      -3.02600000      -0.91930000
H       -1.06860000      -4.41430000      -0.04480000
H       -1.74060000      -3.03900000       0.84910000
H        0.52180000      -2.77570000      -2.19380000
H        2.00920000      -2.53480000      -1.25160000
H        0.41890000      -4.60940000      -3.08180000
