17
Properties=species:S:1:pos:R:3 gdb_71367=T pbc="F F F"
O        0.11250000       1.34630000       0.10230000
C        0.06620000      -0.02290000       0.04840000
C        0.68190000      -0.97280000       1.08630000
C        0.03080000      -1.89070000       0.02080000
C       -1.21660000      -0.93490000      -0.03000000
C       -1.70910000      -0.87310000      -1.46750000
O       -1.26910000       0.31560000      -2.17380000
C       -0.45650000      -0.88570000      -2.22210000
C        0.58300000      -0.95300000      -1.11410000
H       -0.35970000       1.64830000      -0.68640000
H        1.77320000      -0.98850000       1.14780000
H        0.22610000      -0.97290000       2.07980000
H        0.01200000      -2.97880000       0.00760000
H       -1.92800000      -0.93150000       0.79570000
H       -2.64810000      -1.29640000      -1.80710000
H       -0.32410000      -1.31980000      -3.20710000
H        1.64550000      -0.96740000      -1.35690000
