14
Properties=species:S:1:pos:R:3 gdb_125344=T pbc="F F F"
C       -0.02370000       1.50160000       0.03590000
C       -0.00060000       0.00240000      -0.01150000
C        0.07020000      -0.71950000      -1.21300000
N        0.08980000      -2.03840000      -1.23130000
C        0.03680000      -2.62270000      -0.01770000
N       -0.03180000      -1.97940000       1.15750000
N       -0.05020000      -0.65370000       1.15120000
C        0.05450000      -4.05050000       0.03470000
C        0.06960000      -5.25170000       0.07630000
H        0.87940000       1.92470000      -0.41730000
H       -0.88140000       1.90090000      -0.51620000
H       -0.08620000       1.83240000       1.07360000
H        0.11130000      -0.20770000      -2.17310000
H        0.08280000      -6.31330000       0.11540000
