16
Properties=species:S:1:pos:R:3 gdb_56013=T pbc="F F F"
N       -0.24540000       1.25970000       0.27440000
C        0.03100000      -0.02630000      -0.09220000
O        1.03970000      -0.38930000      -0.64810000
O       -1.03150000      -0.82260000       0.22280000
C       -0.86990000      -2.23340000      -0.03060000
O       -0.47710000      -2.89740000       1.14170000
C       -1.56820000      -3.65050000       1.66990000
C       -2.62730000      -3.58940000       0.60720000
C       -2.21860000      -2.79830000      -0.37730000
H        0.53070000       1.89880000       0.26850000
H       -0.99200000       1.42500000       0.92790000
H       -0.08360000      -2.33330000      -0.78140000
H       -1.21930000      -4.67210000       1.87020000
H       -1.91290000      -3.22510000       2.62490000
H       -3.57090000      -4.11470000       0.67760000
H       -2.74770000      -2.52960000      -1.28100000
