14
Properties=species:S:1:pos:R:3 gdb_125208=T pbc="F F F"
C       -0.02090000       1.52410000       0.06130000
C        0.00820000       0.03790000      -0.04910000
C       -0.00570000      -0.83150000      -1.11500000
O       -0.04690000      -0.84730000      -2.44830000
N       -0.02430000      -2.32920000      -2.78380000
N        0.02230000      -2.98550000      -1.73270000
C        0.03840000      -2.15960000      -0.63200000
C        0.08050000      -2.13350000       0.74960000
N        0.06130000      -0.80190000       1.06440000
H        0.87310000       1.92330000       0.55650000
H       -0.06420000       1.95990000      -0.93900000
H       -0.89620000       1.88420000       0.61610000
H        0.12040000      -2.90020000       1.50310000
H        0.08300000      -0.45550000       2.00970000
