13
Properties=species:S:1:pos:R:3 gdb_130849=T pbc="F F F"
O       -0.03010000      -0.09580000      -0.00010000
C       -0.00940000       1.11570000       0.00990000
C        1.21320000       1.91150000       0.00240000
C        1.31940000       3.30690000       0.01310000
N        2.65210000       3.56820000      -0.00040000
N        3.41880000       2.45960000      -0.01880000
C        2.55390000       1.45610000      -0.01690000
C        0.34240000       4.32120000       0.03310000
C       -0.48520000       5.19560000       0.05040000
H       -0.94850000       1.70920000       0.02580000
H        3.08950000       4.47580000       0.00200000
H        2.89670000       0.43300000      -0.02950000
H       -1.22160000       5.96140000       0.06660000
