13
Properties=species:S:1:pos:R:3 gdb_9156=T pbc="F F F"
C        0.04670000       1.45300000       0.09850000
N        0.15570000       0.01150000      -0.00980000
C        0.40160000      -0.61730000      -1.19470000
O        0.55180000      -0.04780000      -2.26120000
C        0.47190000      -2.06730000      -1.07730000
C        0.54350000      -3.27650000      -1.05380000
C        0.62170000      -4.63250000      -1.01560000
C        0.69080000      -5.83740000      -0.97950000
H        0.81000000       1.85830000       0.77170000
H        0.19400000       1.86790000      -0.89890000
H       -0.94140000       1.74870000       0.46760000
H        0.04820000      -0.55900000       0.81310000
H        0.75210000      -6.89730000      -0.95050000
