18
Properties=species:S:1:pos:R:3 gdb_96403=T pbc="F F F"
C       -0.03820000       1.52180000      -0.06910000
C        0.04360000       0.00650000      -0.00820000
O        0.67180000      -0.45280000      -1.19210000
C        0.73830000      -1.87130000      -1.24230000
C        1.50160000      -2.40750000      -0.03990000
O        0.90050000      -1.94730000       1.17300000
C        0.80270000      -0.53570000       1.22540000
C        2.13970000       0.08520000       1.36790000
N        3.18270000       0.56740000       1.48900000
H        0.96050000       1.96140000      -0.13240000
H       -0.60480000       1.82110000      -0.95400000
H       -0.54240000       1.91920000       0.81710000
H       -0.96820000      -0.42800000       0.06170000
H       -0.27760000      -2.29740000      -1.26030000
H        1.24580000      -2.13150000      -2.17550000
H        1.46580000      -3.49900000       0.00200000
H        2.55180000      -2.08650000      -0.08420000
H        0.22950000      -0.30830000       2.13040000
