21
Properties=species:S:1:pos:R:3 gdb_120505=T pbc="F F F"
C       -0.32910000       1.35590000      -0.36470000
C       -0.10410000      -0.12940000      -0.14190000
O        0.61500000      -0.64470000      -1.25580000
C        0.93130000      -2.00860000      -1.14720000
O       -0.21100000      -2.84590000      -1.24010000
C       -0.23800000      -3.51630000      -2.50750000
C       -1.40360000      -3.02260000      -3.36750000
C        1.11930000      -3.23780000      -3.09760000
C        1.79050000      -2.39840000      -2.32040000
H        0.62550000       1.88050000      -0.46530000
H       -0.90870000       1.52360000      -1.27690000
H       -0.87680000       1.78820000       0.47830000
H        0.47070000      -0.30140000       0.78340000
H       -1.05990000      -0.65970000      -0.03730000
H        1.38850000      -2.19160000      -0.16030000
H       -0.37020000      -4.58900000      -2.30320000
H       -1.29360000      -1.95380000      -3.57020000
H       -1.43870000      -3.56230000      -4.32000000
H       -2.35050000      -3.18590000      -2.84550000
H        1.44810000      -3.66370000      -4.03730000
H        2.77460000      -1.98090000      -2.48340000
