17
Properties=species:S:1:pos:R:3 gdb_21989=T pbc="F F F"
C       -0.00760000       1.49010000      -0.03530000
C       -0.03890000      -0.00820000       0.01520000
C       -1.14980000      -0.76030000      -0.14300000
C       -1.11700000      -2.21150000      -0.08330000
C        0.19550000      -2.79640000       0.15860000
C        1.27320000      -2.00060000       0.30970000
N        1.17950000      -0.63050000       0.24280000
N       -2.23100000      -2.85550000      -0.24610000
O       -2.01230000      -4.25560000      -0.15720000
H        0.65440000       1.84810000      -0.83380000
H       -1.00670000       1.88700000      -0.21900000
H        0.35990000       1.91300000       0.90820000
H       -2.10400000      -0.28000000      -0.32100000
H        0.29550000      -3.86950000       0.21550000
H        2.26870000      -2.38850000       0.49110000
H        2.00480000      -0.06900000       0.36020000
H       -2.90070000      -4.59750000      -0.29340000
