19
Properties=species:S:1:pos:R:3 gdb_72093=T pbc="F F F"
C       -0.09810000       1.54310000      -0.00180000
C       -0.02980000       0.03840000      -0.01830000
C        0.97680000      -0.68680000      -0.90470000
C        0.43430000      -2.12950000      -0.84980000
C        0.78140000      -2.76570000       0.49380000
O        0.42490000      -1.89220000       1.56750000
C       -0.38820000      -0.81270000       1.19030000
C       -1.24500000      -0.88110000      -0.04830000
O       -0.99280000      -1.98220000      -0.89130000
H        0.82870000       1.98270000       0.38510000
H       -0.26340000       1.94350000      -1.00940000
H       -0.91770000       1.89650000       0.63250000
H        0.94820000      -0.28780000      -1.92420000
H        2.00490000      -0.62620000      -0.53380000
H        0.73520000      -2.76790000      -1.68260000
H        0.23530000      -3.71330000       0.59330000
H        1.85690000      -2.97160000       0.57150000
H       -0.77990000      -0.31510000       2.07150000
H       -2.27660000      -0.55000000      -0.08060000
