21
Properties=species:S:1:pos:R:3 gdb_105888=T pbc="F F F"
C       -0.31500000       1.33370000      -0.11810000
O        0.21840000       0.03130000       0.06510000
C        0.77090000      -0.51230000      -1.07800000
C       -0.09610000      -1.08490000      -2.15250000
O        0.04220000      -0.72200000      -3.49990000
C        0.85680000      -2.00770000      -1.43470000
C        2.28370000      -1.80020000      -1.95890000
C        2.23700000      -0.30260000      -1.50020000
C        2.61840000       0.80160000      -2.48070000
H        0.46630000       2.06430000      -0.36760000
H       -1.07290000       1.34850000      -0.91330000
H       -0.77940000       1.62300000       0.82750000
H       -1.12920000      -1.19900000      -1.81980000
H       -0.13560000      -1.50230000      -4.03640000
H        0.50270000      -2.86840000      -0.87980000
H        3.03520000      -2.39000000      -1.43120000
H        2.40440000      -1.95110000      -3.03540000
H        2.82380000      -0.20530000      -0.58050000
H        2.03210000       0.72840000      -3.39860000
H        2.45240000       1.79340000      -2.04550000
H        3.68140000       0.73440000      -2.74010000
