19
Properties=species:S:1:pos:R:3 gdb_59280=T pbc="F F F"
C        0.09790000       1.53390000       0.00040000
C        0.01840000       0.01000000       0.07400000
O        0.65520000      -0.47890000       1.25260000
C       -1.42210000      -0.53940000      -0.01250000
C       -2.20000000      -0.15320000      -1.26120000
C       -2.66410000      -1.21490000      -1.92550000
C       -2.22750000      -2.47420000      -1.25090000
O       -0.78690000      -2.62100000      -1.20790000
C       -1.45100000      -2.06990000      -0.06820000
H        1.13330000       1.85570000       0.14120000
H       -0.25100000       1.91310000      -0.96450000
H       -0.51440000       1.99870000       0.78450000
H        0.58690000      -0.43020000      -0.75130000
H        0.25930000      -0.02960000       2.00790000
H       -1.96010000      -0.19480000       0.88540000
H       -2.32690000       0.87810000      -1.56990000
H       -3.24880000      -1.19210000      -2.83670000
H       -2.78160000      -3.40440000      -1.33000000
H       -1.37990000      -2.65740000       0.84140000
