17
Properties=species:S:1:pos:R:3 gdb_43831=T pbc="F F F"
O        0.08980000      -0.01670000       0.15810000
C        0.02490000       1.17530000      -0.00450000
C       -1.26270000       1.97630000      -0.26190000
C       -0.79170000       3.23170000      -0.98780000
C       -1.39760000       3.71450000      -2.23340000
O       -1.63260000       4.38510000      -0.98890000
C        0.67530000       3.41840000      -0.68920000
C        1.05320000       3.38650000       0.75690000
C        1.18520000       2.11840000      -0.07490000
H       -1.98010000       1.37560000      -0.82330000
H       -1.73360000       2.23630000       0.69380000
H       -0.79330000       4.26600000      -2.95350000
H       -2.25570000       3.19160000      -2.65440000
H        1.28130000       3.98520000      -1.38590000
H        1.98710000       3.85860000       1.03870000
H        0.27820000       3.44580000       1.51320000
H        2.16990000       1.71150000      -0.26550000
