22
Properties=species:S:1:pos:R:3 gdb_103857=T pbc="F F F"
C        0.10080000       1.09330000      -0.74190000
C       -0.05640000      -0.00540000       0.31870000
C       -1.45520000      -0.60090000       0.35620000
C       -2.54950000       0.30460000       0.88410000
O       -1.84520000      -1.35160000      -0.82170000
C       -1.67450000      -2.06110000       0.41030000
C       -0.58640000      -3.09530000       0.43470000
C       -0.62610000      -4.20420000      -0.55240000
N        0.39870000      -3.15010000      -0.65250000
H        1.13300000       1.45370000      -0.77170000
H       -0.15350000       0.70820000      -1.73400000
H       -0.54360000       1.95470000      -0.54110000
H        0.67660000      -0.79450000       0.13670000
H        0.16540000       0.40290000       1.31310000
H       -2.61890000       1.22340000       0.29400000
H       -3.51950000      -0.19650000       0.84160000
H       -2.34720000       0.58760000       1.92280000
H       -2.61190000      -2.39550000       0.86290000
H       -0.17850000      -3.29660000       1.42380000
H       -0.25400000      -5.18830000      -0.28240000
H       -1.43520000      -4.20110000      -1.27820000
H        0.09630000      -2.48630000      -1.36470000
