20
Properties=species:S:1:pos:R:3 gdb_99610=T pbc="F F F"
C        0.20500000       1.51260000       0.00410000
N       -0.20850000       0.17120000      -0.38940000
C        0.69780000      -0.52520000      -1.28330000
C        2.09470000      -0.60530000      -0.76650000
N        3.15980000      -0.66350000      -0.31940000
C        0.18820000      -1.94220000      -1.54430000
N        0.09720000      -2.69980000      -0.31590000
C       -0.88120000      -2.10790000      -2.57950000
C        0.52690000      -2.58580000      -2.87100000
H        1.19260000       1.55960000       0.49050000
H        0.23480000       2.16170000      -0.87890000
H       -0.53880000       1.92370000       0.69180000
H       -0.36140000      -0.42530000       0.41810000
H        0.74360000       0.01900000      -2.23490000
H       -0.56450000      -3.46190000      -0.39890000
H        0.99880000      -3.09700000      -0.06700000
H       -1.64760000      -2.85450000      -2.39690000
H       -1.24660000      -1.22010000      -3.08300000
H        1.12180000      -2.03190000      -3.58990000
H        0.71040000      -3.65480000      -2.86880000
