17
Properties=species:S:1:pos:R:3 gdb_128855=T pbc="F F F"
C        1.05430000       0.89140000       0.08270000
O        0.77130000      -0.43960000      -0.29710000
C       -0.13370000      -0.52940000      -1.37260000
C       -0.27920000      -1.99840000      -1.74440000
N        0.94420000      -2.55550000      -2.29930000
C        2.15920000      -2.74310000      -1.75220000
N        2.96100000      -3.26430000      -2.65540000
N        2.20760000      -3.39260000      -3.78070000
N        1.00300000      -2.97380000      -3.58480000
H        1.50810000       1.45950000      -0.74270000
H        0.14580000       1.41840000       0.41060000
H        1.75930000       0.84760000       0.91530000
H       -1.12320000      -0.13320000      -1.09120000
H        0.22460000       0.04610000      -2.24090000
H       -0.56510000      -2.57270000      -0.85820000
H       -1.04690000      -2.12490000      -2.50940000
H        2.40210000      -2.48320000      -0.73660000
