19
Properties=species:S:1:pos:R:3 gdb_22489=T pbc="F F F"
C        2.01930000      -0.52360000       0.35310000
C        0.54610000      -0.34180000      -0.06140000
C        0.36550000      -0.24760000      -1.55510000
C       -0.11580000      -1.45200000      -2.32310000
O        0.73600000      -2.58490000      -2.11340000
C        1.84420000      -2.64870000      -2.88250000
N        2.72270000      -3.52200000      -2.64350000
N        0.59110000       0.78690000      -2.27330000
O        1.01620000       1.87840000      -1.50720000
H        2.43270000      -1.44840000      -0.05750000
H        2.62220000       0.31650000       0.00070000
H        2.09950000      -0.56980000       1.44320000
H       -0.04620000      -1.18210000       0.31380000
H        0.15440000       0.57520000       0.39010000
H       -1.09770000      -1.77050000      -1.95950000
H       -0.19530000      -1.20520000      -3.38710000
H        1.86200000      -1.90260000      -3.68830000
H        3.47150000      -3.45670000      -3.33010000
H        1.11810000       2.56840000      -2.17160000
