18
Properties=species:S:1:pos:R:3 gdb_112101=T pbc="F F F"
C       -0.09060000       1.57050000       0.01360000
C       -0.00840000       0.04320000       0.01390000
N       -1.32140000      -0.60890000       0.02740000
C       -1.97860000      -0.83760000       1.23900000
C       -3.13800000      -1.48810000       1.28790000
C       -3.69400000      -2.00650000      -0.00020000
O       -3.24720000      -1.22900000      -1.12830000
C       -1.99610000      -0.71820000      -1.18050000
O       -1.53260000      -0.34190000      -2.22850000
H        0.91530000       2.00190000       0.01570000
H       -0.61260000       1.91700000      -0.88110000
H       -0.62100000       1.94180000       0.89660000
H        0.51410000      -0.30340000      -0.87880000
H        0.54160000      -0.31940000       0.88790000
H       -1.47630000      -0.44020000       2.11330000
H       -3.66070000      -1.65880000       2.21890000
H       -3.41320000      -3.05730000      -0.17430000
H       -4.78570000      -1.95110000      -0.03260000
