16
Properties=species:S:1:pos:R:3 gdb_83073=T pbc="F F F"
C       -0.04340000       1.62400000       0.20770000
C        0.01430000       0.12020000       0.32000000
C        1.15480000      -0.71370000      -0.13610000
O        2.41680000      -0.08340000      -0.26960000
C        2.75510000       0.33970000       0.97870000
N        1.97850000       0.07330000       1.95010000
C        0.84880000      -0.61540000       1.38140000
C        0.22490000      -1.70690000       2.16360000
O       -0.69720000      -2.37800000       1.76330000
H        0.91140000       2.09730000       0.44510000
H       -0.31770000       1.91480000      -0.81130000
H       -0.79500000       2.02830000       0.89170000
H       -0.93140000      -0.40000000       0.18590000
H        1.04840000      -1.60570000      -0.74030000
H        3.69360000       0.87680000       1.03610000
H        0.68570000      -1.86640000       3.16080000
