19
Properties=species:S:1:pos:R:3 gdb_20021=T pbc="F F F"
C        0.56690000       1.21750000       0.31750000
C       -0.24690000       0.00100000      -0.14160000
C        0.30550000      -0.60050000      -1.41150000
O        1.55750000      -1.31180000      -1.33410000
C        0.38240000      -2.04250000      -1.70160000
C       -0.05530000      -3.11480000      -0.74620000
C        0.89220000      -4.20390000      -0.39870000
N        0.52980000      -3.18000000       0.59830000
H        1.60450000       0.93440000       0.51860000
H        0.57760000       2.00110000      -0.44810000
H        0.14800000       1.64800000       1.23150000
H       -0.28300000      -0.75380000       0.64830000
H       -1.28510000       0.30010000      -0.33780000
H        0.26210000       0.06530000      -2.27730000
H        0.35400000      -2.33920000      -2.75270000
H       -1.11830000      -3.34640000      -0.78760000
H        0.52120000      -5.20340000      -0.19170000
H        1.88690000      -4.16280000      -0.83500000
H        1.28440000      -2.49530000       0.63040000
