19
Properties=species:S:1:pos:R:3 gdb_40575=T pbc="F F F"
C       -0.12510000       1.37550000      -0.05080000
C        1.28500000       0.92200000       0.09710000
N        0.18980000      -0.04360000       0.09040000
C       -0.13880000      -0.64700000       1.36870000
C       -1.49830000      -1.34640000       1.30610000
C       -0.88410000      -2.62050000       0.87450000
C        0.45690000      -2.07630000       1.50150000
C       -0.13000000      -2.54560000       2.83970000
N       -1.50320000      -2.53630000       2.22780000
H       -0.57270000       1.88590000       0.80080000
H       -0.51100000       1.68050000      -1.01910000
H        1.94880000       0.88880000      -0.76190000
H        1.77630000       1.13090000       1.04640000
H        0.04740000       0.03880000       2.21520000
H       -2.46270000      -0.92320000       1.05750000
H       -1.14120000      -3.35430000       0.12350000
H        1.47940000      -2.27250000       1.18550000
H        0.12400000      -3.57760000       3.09450000
H       -0.00180000      -1.90370000       3.72020000
