19
Properties=species:S:1:pos:R:3 gdb_51362=T pbc="F F F"
O        0.66760000      -0.48250000      -0.45130000
C        0.38030000       0.67960000      -0.56740000
C        1.16320000       1.83230000       0.03120000
C        1.29550000       2.98810000      -0.96600000
C        1.22110000       4.48410000      -0.77340000
C        2.04480000       5.10180000       0.38970000
C        2.82200000       4.12750000       1.23240000
C        3.30660000       4.45240000      -0.15510000
C        2.49000000       3.83530000      -1.32500000
H       -0.52540000       0.99150000      -1.14190000
H        0.60060000       2.15310000       0.91900000
H        2.12480000       1.43910000       0.36790000
H        0.76540000       2.75330000      -1.89190000
H        0.49180000       5.07610000      -1.31310000
H        1.90240000       6.13040000       0.69450000
H        3.40760000       4.61060000       2.01020000
H        2.44890000       3.15800000       1.52660000
H        4.27180000       4.91110000      -0.32560000
H        2.86550000       3.86920000      -2.34040000
