16
Properties=species:S:1:pos:R:3 gdb_19896=T pbc="F F F"
O       -0.46990000       0.60930000      -1.09740000
C       -0.06060000       1.08450000      -0.06820000
C        1.09990000       2.04230000      -0.00140000
C        1.17750000       3.53200000      -0.29170000
C        0.04720000       4.41630000       0.28970000
C       -1.01390000       3.66160000       1.03270000
C        0.33250000       3.85940000       1.67740000
C        1.48610000       2.98780000       1.09830000
H       -0.48210000       0.77620000       0.91460000
H        1.97370000       1.55810000      -0.43990000
H        1.87200000       3.90140000      -1.03520000
H       -0.07930000       5.44770000      -0.01190000
H       -1.79160000       4.29250000       1.45510000
H       -1.39130000       2.70290000       0.69620000
H        0.44230000       4.40160000       2.60710000
H        2.44920000       2.93020000       1.58980000
