19
Properties=species:S:1:pos:R:3 gdb_109267=T pbc="F F F"
O       -0.07420000       1.37790000      -0.42200000
C       -0.08440000       0.00010000      -0.16200000
C       -1.47440000      -0.50350000       0.11340000
N       -2.45060000       0.30910000       0.25930000
C       -3.66990000      -0.47810000       0.49990000
C       -3.22310000      -1.95370000       0.37740000
C       -3.27300000      -2.68150000      -0.99250000
C       -1.72290000      -2.74000000      -0.94020000
N       -1.72580000      -1.87130000       0.28580000
H       -0.96770000       1.68530000      -0.20370000
H        0.34430000      -0.54770000      -1.01580000
H        0.54320000      -0.25330000       0.70880000
H       -4.06300000      -0.25500000       1.49810000
H       -4.44840000      -0.20180000      -0.22200000
H       -3.55510000      -2.57090000       1.21560000
H       -3.79240000      -3.64120000      -1.01430000
H       -3.65600000      -2.05080000      -1.79910000
H       -1.31340000      -3.72970000      -0.72250000
H       -1.18430000      -2.31260000      -1.79040000
