18
Properties=species:S:1:pos:R:3 gdb_127974=T pbc="F F F"
C       -0.02350000       1.37820000      -0.05400000
N       -0.00270000      -0.07630000      -0.01780000
C        0.57560000      -0.63560000       0.95370000
O        1.20880000      -0.05330000       2.01620000
N        1.72480000      -1.06690000       2.88360000
C        1.39060000      -2.18340000       2.32340000
C        1.73130000      -3.51300000       2.89680000
N        0.69570000      -2.00760000       1.15640000
C        0.15750000      -3.00280000       0.25400000
H        0.98680000       1.80890000      -0.08540000
H       -0.55730000       1.70240000      -0.95080000
H       -0.53220000       1.80970000       0.81910000
H        2.28440000      -3.36870000       3.82530000
H        0.82690000      -4.09330000       3.10750000
H        2.34670000      -4.09420000       2.20230000
H       -0.58290000      -3.63500000       0.75420000
H       -0.32560000      -2.45600000      -0.55730000
H        0.94940000      -3.63580000      -0.15870000
