18
Properties=species:S:1:pos:R:3 gdb_34380=T pbc="F F F"
C       -0.02660000      -1.19110000      -0.07210000
C       -0.01910000       0.01070000      -0.02850000
C       -0.04700000       1.46730000       0.01640000
C       -0.35280000       2.19930000      -1.32820000
C        0.85610000       3.10240000      -0.99940000
N        1.28920000       2.16790000       0.07580000
C        1.43190000       2.76660000       1.41100000
C        0.04330000       2.69490000       2.01250000
C       -0.77720000       1.98530000       1.24230000
H       -0.01910000      -2.25230000      -0.10990000
H       -0.20070000       1.55410000      -2.19400000
H       -1.32920000       2.68070000      -1.39580000
H        1.60150000       3.23610000      -1.78880000
H        0.56140000       4.09100000      -0.62260000
H        2.15970000       2.21480000       2.02310000
H        1.81010000       3.79320000       1.32120000
H       -0.21550000       3.14180000       2.96580000
H       -1.81130000       1.73780000       1.44760000
