23
Properties=species:S:1:pos:R:3 gdb_64479=T pbc="F F F"
C        0.00290000       1.49480000       0.11140000
C       -0.01210000      -0.03090000      -0.03190000
C       -1.45730000      -0.54970000      -0.02890000
C        0.70560000      -0.46820000      -1.33270000
C        2.24090000      -0.47600000      -1.27960000
C        2.81850000      -1.71280000      -0.58470000
O        2.58120000      -1.77350000       0.81020000
C        1.22930000      -1.76700000       1.18350000
O        0.65440000      -0.49210000       1.16220000
H        1.02320000       1.88410000       0.05840000
H       -0.59200000       1.96620000      -0.67670000
H       -0.41410000       1.77920000       1.08120000
H       -2.00190000      -0.19650000      -0.91100000
H       -1.48250000      -1.64420000      -0.03840000
H       -1.98290000      -0.20280000       0.86510000
H        0.36140000      -1.46850000      -1.62550000
H        0.36520000       0.20320000      -2.12910000
H        2.63020000      -0.46800000      -2.30540000
H        2.62280000       0.42510000      -0.78800000
H        2.41950000      -2.61980000      -1.07230000
H        3.90720000      -1.73230000      -0.69380000
H        0.65660000      -2.48190000       0.56820000
H        1.21390000      -2.09150000       2.22750000
