18
Properties=species:S:1:pos:R:3 gdb_34971=T pbc="F F F"
C       -0.15590000      -1.30960000      -0.16860000
C       -0.07740000      -0.11320000      -0.06980000
C        0.02110000       1.32510000       0.04030000
C       -0.08260000       2.05180000       1.41670000
C        0.98590000       1.32860000       2.26160000
C        2.15720000       1.82940000       1.39130000
C        1.97980000       3.34870000       1.57440000
N        0.71010000       3.22040000       0.77950000
C        1.37210000       2.05920000       0.03690000
H       -0.22820000      -2.36520000      -0.25830000
H       -0.63280000       1.82370000      -0.68170000
H       -1.04700000       2.29680000       1.85790000
H        1.05100000       1.68160000       3.29400000
H        0.84860000       0.24580000       2.26330000
H        3.11770000       1.31790000       1.45420000
H        1.88280000       3.74970000       2.58870000
H        2.68030000       3.96100000       0.99910000
H        1.93390000       2.27610000      -0.87190000
