19
Properties=species:S:1:pos:R:3 gdb_103732=T pbc="F F F"
C       -0.32980000       1.54130000       0.11950000
C       -0.12270000       0.04050000       0.08560000
C       -1.18540000      -0.69760000      -0.72030000
O       -1.11770000      -0.32460000      -2.08600000
O        1.21540000      -0.40190000      -0.19140000
C        0.69520000      -0.65370000       1.12780000
C        1.32150000       0.07040000       2.29790000
C        0.45370000      -2.12050000       1.38700000
O        0.26260000      -2.58280000       2.48270000
H        0.58220000       2.06820000       0.39960000
H       -0.62940000       1.87500000      -0.87770000
H       -1.12650000       1.80730000       0.82210000
H       -1.09430000      -1.78370000      -0.60330000
H       -2.18170000      -0.40810000      -0.37040000
H       -0.23500000      -0.56050000      -2.39490000
H        1.34680000       1.14950000       2.15520000
H        0.75590000      -0.16320000       3.20320000
H        2.34620000      -0.28380000       2.44770000
H        0.50360000      -2.75700000       0.47870000
