15
Properties=species:S:1:pos:R:3 gdb_99835=T pbc="F F F"
N        0.02830000       1.24260000      -0.39350000
C        0.05630000       0.03360000       0.20520000
O        1.01560000      -0.47330000       0.74790000
C       -1.27630000      -0.74790000       0.10520000
O       -2.27830000       0.02830000      -0.51530000
C       -1.03260000      -2.03350000      -0.72950000
O       -2.27110000      -2.66650000      -0.99030000
C       -1.71620000      -1.15090000       1.46150000
N       -2.12290000      -1.51600000       2.47960000
H        0.85440000       1.81690000      -0.36630000
H       -0.82890000       1.58980000      -0.79010000
H       -2.90010000      -0.60700000      -0.90290000
H       -0.62590000      -1.73360000      -1.69940000
H       -0.31150000      -2.67870000      -0.22000000
H       -2.55520000      -3.11940000      -0.18670000
