17
Properties=species:S:1:pos:R:3 gdb_93810=T pbc="F F F"
C       -0.49670000       1.36700000       0.08030000
C       -0.03770000      -0.06500000      -0.05380000
O        0.85780000      -0.16920000      -1.10920000
C        1.30430000      -1.50230000      -1.36300000
C        1.22760000      -2.38720000      -0.09800000
O        2.20130000      -3.38920000      -0.12170000
C        1.37140000      -1.53050000       1.15620000
O        2.09820000      -1.84780000       2.06290000
O        0.62340000      -0.41940000       1.19340000
H        0.37270000       2.01830000       0.19500000
H       -1.04920000       1.66010000      -0.81500000
H       -1.14270000       1.47220000       0.95420000
H       -0.88860000      -0.75350000      -0.17870000
H        0.71970000      -1.94530000      -2.17890000
H        2.34960000      -1.43870000      -1.67330000
H        0.22070000      -2.83670000      -0.04090000
H        2.63060000      -3.34850000       0.74830000
