17
Properties=species:S:1:pos:R:3 gdb_126696=T pbc="F F F"
C       -0.03910000       1.51100000       0.02910000
C       -0.01850000      -0.02070000      -0.01450000
N       -1.34330000      -0.63800000       0.01970000
C       -2.10920000      -0.71560000      -1.21480000
C       -1.95910000      -0.77370000       1.21620000
N       -1.43240000      -0.49180000       2.38840000
O       -2.41670000      -0.86170000       3.27550000
N       -3.49950000      -1.33030000       2.58420000
N       -3.24740000      -1.28310000       1.35110000
H        0.98330000       1.89920000      -0.01110000
H       -0.59080000       1.92940000      -0.81840000
H       -0.50070000       1.86460000       0.95470000
H        0.47340000      -0.37050000      -0.92830000
H        0.55090000      -0.41040000       0.83420000
H       -1.49150000      -1.17860000      -1.99040000
H       -2.99580000      -1.32890000      -1.05800000
H       -2.42960000       0.27310000      -1.57100000
