20
Properties=species:S:1:pos:R:3 gdb_45558=T pbc="F F F"
O       -0.39570000       0.21540000       0.64990000
C       -0.26940000       1.29360000       0.13380000
C       -1.22010000       1.93970000      -0.87830000
C       -0.73580000       3.38580000      -0.96530000
C       -1.36710000       4.38050000       0.05310000
C       -0.17990000       5.24780000       0.54910000
C        1.05750000       4.67620000      -0.20340000
N        0.70690000       3.32140000      -0.62900000
C        0.87370000       2.28010000       0.38370000
H       -1.09790000       1.41310000      -1.83200000
H       -2.26140000       1.82360000      -0.56960000
H       -0.83770000       3.79160000      -1.97760000
H       -2.16020000       4.97440000      -0.40860000
H       -1.82470000       3.83670000       0.88620000
H       -0.31840000       6.31100000       0.33710000
H       -0.05860000       5.15470000       1.63190000
H        1.26290000       5.27810000      -1.09680000
H        1.96880000       4.66960000       0.40010000
H        0.77520000       2.63730000       1.42540000
H        1.84410000       1.77820000       0.30820000
