20
Properties=species:S:1:pos:R:3 gdb_101409=T pbc="F F F"
C       -0.05730000       1.54600000       0.12870000
C       -0.05170000       0.02100000       0.00040000
C        0.72750000      -0.47140000      -1.22640000
O        2.07460000      -0.01110000      -1.23240000
C        0.68360000      -1.99930000      -1.35590000
C        1.47890000      -2.65920000      -2.50360000
O        2.28810000      -3.39370000      -1.52540000
C        1.66070000      -2.76440000      -0.47940000
N        1.89960000      -2.79020000       0.75430000
H        0.96300000       1.93610000       0.16920000
H       -0.55530000       2.01340000      -0.72830000
H       -0.58280000       1.86180000       1.03460000
H        0.38470000      -0.44060000       0.89530000
H       -1.08060000      -0.35500000      -0.06660000
H        0.28360000      -0.03740000      -2.13230000
H        2.47970000      -0.30980000      -0.40780000
H       -0.34180000      -2.36810000      -1.26830000
H        0.93740000      -3.34550000      -3.15720000
H        2.10730000      -1.97430000      -3.07600000
H        2.68500000      -3.40750000       0.96930000
