16
Properties=species:S:1:pos:R:3 gdb_30880=T pbc="F F F"
C       -0.46130000       1.06070000       0.08600000
O        0.71010000       0.24120000       0.14390000
C        0.94350000      -0.49380000      -0.97110000
C        0.71070000      -1.80400000      -1.27510000
N        0.17830000      -2.81770000      -0.47210000
N        1.16970000      -2.09150000      -2.55230000
C        1.67400000      -0.96930000      -2.99190000
O        2.24920000      -0.77090000      -4.19180000
N        1.57220000       0.05100000      -2.11340000
H       -0.37270000       1.83040000      -0.69120000
H       -1.35410000       0.45740000      -0.11730000
H       -0.55560000       1.54400000       1.06100000
H       -0.35360000      -2.45300000       0.30700000
H       -0.38370000      -3.46300000      -1.01310000
H        2.23680000      -1.62780000      -4.63670000
H        2.00640000       0.95460000      -2.18870000
