20
Properties=species:S:1:pos:R:3 gdb_111616=T pbc="F F F"
O        0.61410000       0.18460000      -1.40040000
C        0.02600000       0.27520000      -0.10910000
C       -1.29370000      -0.46450000      -0.00900000
C       -1.51910000      -1.93490000      -0.19420000
C       -0.46540000      -3.01650000      -0.09660000
C        0.99240000      -2.72920000       0.19870000
C        0.03800000      -3.00310000       1.33230000
C       -0.69810000      -1.85850000       2.04130000
N       -1.73200000      -1.30380000       1.12850000
H        0.54720000      -0.73440000      -1.68000000
H        0.72720000      -0.04230000       0.67300000
H       -0.15710000       1.34150000       0.05690000
H       -2.12270000       0.15090000      -0.35880000
H       -2.41980000      -2.23380000      -0.72660000
H       -0.70280000      -3.94690000      -0.59920000
H        1.68360000      -3.53190000      -0.04040000
H        1.41700000      -1.74860000       0.04130000
H        0.16970000      -3.92590000       1.88730000
H       -1.22940000      -2.26120000       2.90930000
H       -0.03180000      -1.07410000       2.41620000
