14
Properties=species:S:1:pos:R:3 gdb_24177=T pbc="F F F"
C       -0.01380000       1.30840000       0.00990000
C        1.27760000       1.80630000      -0.00010000
N        2.08800000       0.70450000      -0.01440000
C        3.44900000       0.53890000      -0.02880000
C        3.93930000      -0.73230000      -0.04090000
N        3.15790000      -1.85290000      -0.03940000
C        1.85680000      -1.68460000      -0.02550000
C        1.23970000      -0.41440000      -0.01220000
N       -0.03790000      -0.04850000       0.00250000
H       -0.92700000       1.88590000       0.02230000
H        1.67230000       2.80840000       0.00160000
H        4.06060000       1.43140000      -0.02990000
H        5.01170000      -0.89100000      -0.05240000
H        1.21890000      -2.56450000      -0.02420000
