15
Properties=species:S:1:pos:R:3 gdb_28638=T pbc="F F F"
C       -0.00250000       1.53050000       0.01040000
C       -0.00500000       0.02720000       0.00220000
C       -0.00790000      -0.72060000      -1.17660000
N        0.01280000      -2.05020000      -1.20410000
C        0.03460000      -2.66700000      -0.01280000
N        0.02680000      -2.06330000       1.18540000
C        0.00600000      -0.73340000       1.17270000
C        0.06330000      -4.09970000      -0.02080000
C        0.08820000      -5.30170000      -0.02740000
H        1.02020000       1.92630000       0.00280000
H       -0.51380000       1.93370000      -0.86840000
H       -0.49700000       1.92390000       0.90320000
H       -0.03230000      -0.22080000      -2.14420000
H       -0.00700000      -0.24420000       2.14590000
H        0.11020000      -6.36360000      -0.03240000
