21
Properties=species:S:1:pos:R:3 gdb_103982=T pbc="F F F"
C       -0.09990000       1.55420000       0.07240000
C        0.05170000       0.05870000       0.00970000
C       -0.82480000      -0.87170000       0.80680000
C        0.66280000      -0.93710000       1.00770000
C        1.27810000      -1.75760000      -0.12720000
C        0.67610000      -0.72460000      -1.15360000
O       -0.27100000      -1.21180000      -2.08090000
C        1.75760000       0.04360000      -1.90260000
O        2.31780000      -0.87330000      -2.84160000
H        0.83400000       2.07880000      -0.16040000
H       -0.86390000       1.90510000      -0.63160000
H       -0.40980000       1.86890000       1.07430000
H       -1.38780000      -0.38590000       1.59790000
H       -1.34760000      -1.68950000       0.31910000
H        1.12850000      -0.72700000       1.96320000
H        2.36990000      -1.77700000      -0.14030000
H        0.90010000      -2.77880000      -0.23100000
H        0.24360000      -1.56230000      -2.81990000
H        1.30240000       0.90120000      -2.41850000
H        2.52050000       0.42000000      -1.20600000
H        2.85350000      -0.38160000      -3.46980000
