22
Properties=species:S:1:pos:R:3 gdb_104506=T pbc="F F F"
C        1.84740000      -0.37260000       0.55160000
C        0.47740000      -0.10960000      -0.08880000
C        0.42710000      -0.32550000      -1.59460000
C        1.27730000       0.63740000      -2.43890000
C        2.69050000       0.28720000      -2.54470000
C        3.84930000      -0.01150000      -2.66240000
C        0.17820000      -1.69370000      -2.13690000
N       -0.83890000      -0.65600000      -2.26760000
C       -2.08020000      -0.80900000      -1.52480000
H        2.17500000      -1.40080000       0.36830000
H        2.61930000       0.29090000       0.15520000
H        1.79380000      -0.22200000       1.63450000
H       -0.26120000      -0.75600000       0.39420000
H        0.16840000       0.92280000       0.12670000
H        0.83560000       0.65910000      -3.44090000
H        1.17900000       1.65470000      -2.03620000
H        4.87410000      -0.27160000      -2.75910000
H        0.65630000      -2.02360000      -3.05610000
H        0.00180000      -2.48680000      -1.40980000
H       -1.99830000      -1.39550000      -0.59680000
H       -2.48300000       0.17770000      -1.27420000
H       -2.80570000      -1.31420000      -2.17080000
