17
Properties=species:S:1:pos:R:3 gdb_20113=T pbc="F F F"
O       -0.17370000       0.13750000       0.55880000
C       -0.07900000       1.25430000       0.09160000
C        1.19340000       2.02860000       0.06720000
C        2.12210000       1.87110000       1.26220000
C        2.48430000       1.23460000      -0.03700000
N       -1.15050000       1.89360000      -0.54080000
C       -1.79820000       3.08890000      -0.02270000
C       -2.50310000       1.76460000      -0.05550000
H        1.15490000       2.99490000      -0.42090000
H        2.66460000       2.75200000       1.58590000
H        1.76750000       1.22170000       2.05410000
H        2.36690000       0.16040000      -0.11580000
H        3.28220000       1.66680000      -0.62950000
H       -1.47560000       3.45990000       0.94730000
H       -2.03890000       3.85710000      -0.75250000
H       -3.26240000       1.57910000      -0.80940000
H       -2.63790000       1.23280000       0.88230000
