18
Properties=species:S:1:pos:R:3 gdb_69736=T pbc="F F F"
O       -0.05960000       1.39080000       0.07250000
C        0.01670000       0.00210000       0.01570000
C       -0.59270000      -0.79770000       1.13040000
C        0.89820000      -0.88530000       0.85910000
N        1.41080000      -1.91260000      -0.06830000
C        0.27320000      -2.23730000      -1.05150000
C        1.32490000      -2.42250000      -2.15790000
C        1.70940000      -1.15820000      -1.38170000
C        0.19660000      -0.70870000      -1.32230000
H        0.77070000       1.75190000      -0.25870000
H       -0.85450000      -0.22220000       2.01260000
H       -1.25560000      -1.63210000       0.93100000
H        1.60130000      -0.51840000       1.59730000
H       -0.53380000      -2.91820000      -0.77790000
H        1.99200000      -3.27750000      -2.04100000
H        0.98350000      -2.29020000      -3.18570000
H        2.59890000      -0.53120000      -1.48100000
H       -0.32260000      -0.31450000      -2.19870000
