17
Properties=species:S:1:pos:R:3 gdb_70772=T pbc="F F F"
C        0.02200000       1.43720000      -0.09490000
C        0.00320000      -0.05800000      -0.03120000
N        0.61190000      -0.93220000      -1.09780000
C        0.05760000      -1.89050000      -0.09010000
C        0.13170000      -3.32240000      -0.21440000
N        0.17100000      -4.47430000      -0.31140000
C        0.52520000      -1.00080000       1.11110000
C       -0.85400000      -1.06740000       1.79570000
C       -1.19930000      -1.02620000       0.29440000
H        1.04810000       1.80040000      -0.20570000
H       -0.56320000       1.80170000      -0.94610000
H       -0.40280000       1.87050000       0.81630000
H        0.02270000      -0.93190000      -1.93670000
H        1.52960000      -1.00650000       1.53280000
H       -1.09100000      -1.99140000       2.32870000
H       -1.14590000      -0.19610000       2.38740000
H       -2.16820000      -1.06220000      -0.20680000
