16
Properties=species:S:1:pos:R:3 gdb_90398=T pbc="F F F"
O        0.14380000       1.40230000      -0.22530000
C        0.02420000       0.03120000       0.01300000
C        0.23450000      -0.57760000       1.44970000
C       -1.10630000      -1.30350000       1.30330000
C       -2.23020000      -0.27970000       1.15310000
C       -2.18730000       1.01080000       1.78260000
N       -2.09930000       2.06260000       2.26140000
C       -1.35170000      -0.65700000      -0.04130000
O       -1.91030000      -1.23760000      -1.15460000
H       -0.34470000       1.88490000       0.45300000
H        0.68470000      -0.46390000      -0.70430000
H        1.09540000      -1.24510000       1.50670000
H        0.28910000       0.14990000       2.26370000
H       -1.33990000      -2.30920000       1.62800000
H       -3.21950000      -0.71960000       1.08200000
H       -2.19750000      -0.53770000      -1.75340000
