25
Properties=species:S:1:pos:R:3 gdb_122351=T pbc="F F F"
C       -1.12500000      -0.16500000      -4.26060000
C       -0.71700000      -1.09320000      -3.12860000
O       -1.87780000      -1.49650000      -2.43490000
C       -1.60460000      -2.36930000      -1.35360000
C       -2.89740000      -2.66600000      -0.64140000
C       -3.90480000      -3.65860000      -1.18650000
C       -3.68900000      -4.40620000      -2.48540000
C       -3.15330000      -3.97060000       0.09170000
C       -2.13300000      -5.08510000       0.20890000
H       -0.24500000       0.16840000      -4.81890000
H       -1.80150000      -0.67700000      -4.95100000
H       -1.64130000       0.71510000      -3.86670000
H       -0.18230000      -1.97400000      -3.52570000
H       -0.01960000      -0.58190000      -2.44210000
H       -1.11720000      -3.28410000      -1.72380000
H       -0.89080000      -1.89410000      -0.65790000
H       -3.32140000      -1.77770000      -0.18040000
H       -4.94160000      -3.36460000      -1.04100000
H       -2.65440000      -4.72840000      -2.62370000
H       -4.31740000      -5.30290000      -2.52820000
H       -3.94680000      -3.77150000      -3.33930000
H       -3.74150000      -3.85440000       0.99920000
H       -1.56430000      -5.24340000      -0.71010000
H       -1.41320000      -4.87630000       1.00840000
H       -2.62710000      -6.03260000       0.45130000
