18
Properties=species:S:1:pos:R:3 gdb_104949=T pbc="F F F"
C       -0.08490000       1.40790000       0.17530000
C        0.34460000      -0.06050000       0.09160000
C        0.74230000      -0.49300000      -1.31550000
C        0.46450000      -1.90240000      -1.74670000
N       -0.32440000      -0.80580000      -2.30610000
C        1.89510000       0.16840000      -1.86720000
C        2.88680000       0.72570000      -2.27750000
C        4.04850000       1.37570000      -2.82080000
O        4.85250000       2.00540000      -2.17050000
H        0.72840000       2.07030000      -0.13480000
H       -0.94570000       1.60950000      -0.47080000
H       -0.36350000       1.67070000       1.19960000
H        1.19000000      -0.23920000       0.76590000
H       -0.46990000      -0.71350000       0.42950000
H        1.13500000      -2.38840000      -2.44820000
H        0.01810000      -2.55880000      -1.00390000
H       -1.22570000      -0.74800000      -1.83530000
H        4.15960000       1.25540000      -3.91790000
