18
Properties=species:S:1:pos:R:3 gdb_40843=T pbc="F F F"
C        0.03430000       1.41240000       0.06480000
C        1.44100000       0.88760000       0.14870000
C        0.28110000      -0.08040000       0.04980000
N       -0.06130000      -0.79920000       1.22670000
C       -0.43450000      -2.00800000       1.17390000
C       -0.83950000      -2.88260000       2.35810000
N       -1.16590000      -4.20930000       1.81120000
C       -0.99560000      -4.11180000       0.55100000
N       -0.58980000      -2.87210000       0.07810000
H       -0.40830000       1.81100000       0.96960000
H       -0.29310000       1.88390000      -0.85510000
H        2.09100000       0.99360000      -0.71280000
H        1.93960000       0.93600000       1.10930000
H        0.15240000      -0.56640000      -0.91960000
H       -0.03070000      -2.95910000       3.09280000
H       -1.70590000      -2.46270000       2.88110000
H       -1.15260000      -4.92380000      -0.15240000
H       -0.35080000      -2.66580000      -0.87510000
