17
Properties=species:S:1:pos:R:3 gdb_85031=T pbc="F F F"
C       -0.02150000       1.46330000      -0.02410000
N       -0.01830000       0.01470000      -0.02530000
C       -1.17850000      -0.77650000       0.04490000
N       -2.37320000      -0.39710000       0.23010000
C       -0.75550000      -2.21780000      -0.17750000
C        0.76250000      -2.20650000       0.02000000
O        1.44780000      -3.01170000      -0.90590000
C        1.13600000      -0.73190000      -0.14440000
O        2.25190000      -0.30830000      -0.34890000
H        1.00890000       1.79220000      -0.16420000
H       -0.64160000       1.84880000      -0.83970000
H       -0.40250000       1.85270000       0.92600000
H       -2.44480000       0.61490000       0.34280000
H       -1.29960000      -2.89220000       0.48320000
H       -0.97400000      -2.50180000      -1.21210000
H        1.01710000      -2.48740000       1.05620000
H        2.33000000      -2.62660000      -0.99770000
