18
Properties=species:S:1:pos:R:3 gdb_35860=T pbc="F F F"
C       -0.01790000      -1.24750000       0.35960000
C        0.02190000      -0.06100000       0.16920000
C        0.07010000       1.39030000      -0.05780000
O       -0.62840000       2.11030000       0.94880000
C        0.27310000       2.26040000       2.04800000
C        1.66620000       2.48390000       1.42480000
C        1.50450000       1.94990000      -0.00000000
C        2.58890000       1.41780000      -0.85020000
N        2.03690000       2.76440000      -1.09900000
H       -0.05990000      -2.29590000       0.52490000
H       -0.41570000       1.62270000      -1.01270000
H       -0.08400000       3.10200000       2.64500000
H        0.25890000       1.35630000       2.67260000
H        1.92870000       3.54310000       1.37970000
H        2.44850000       1.96020000       1.97980000
H        3.61060000       1.40280000      -0.47970000
H        2.34760000       0.61210000      -1.53960000
H        1.41140000       2.74290000      -1.90150000
