21
Properties=species:S:1:pos:R:3 gdb_79447=T pbc="F F F"
C       -0.12980000       1.52210000       0.06270000
C       -0.01210000       0.00190000       0.04020000
C        0.78010000      -0.55930000      -1.15740000
C        2.12510000      -0.34830000      -0.38680000
C        2.64700000      -1.68370000      -0.93540000
C        1.15040000      -2.08440000      -0.88580000
C        0.89310000      -2.11450000       0.64380000
O        1.78160000      -2.91560000       1.40270000
C        1.16480000      -0.61550000       0.85550000
H        0.82820000       2.01310000      -0.13420000
H       -0.84070000       1.86810000      -0.69600000
H       -0.48870000       1.87140000       1.03690000
H       -0.99630000      -0.44090000       0.23900000
H        0.62290000      -0.25160000      -2.19220000
H        2.70020000       0.57520000      -0.40130000
H        3.00400000      -1.56440000      -1.96280000
H        3.35380000      -2.27400000      -0.35010000
H        0.74480000      -2.89790000      -1.48950000
H       -0.14620000      -2.37440000       0.88760000
H        1.66240000      -3.83200000       1.13190000
H        1.40590000      -0.29330000       1.86830000
