15
Properties=species:S:1:pos:R:3 gdb_30539=T pbc="F F F"
N       -0.02560000       1.31580000       0.21410000
C        0.06890000      -0.04910000       0.23470000
N        1.04950000      -0.66190000      -0.31610000
C        1.18380000      -2.00910000      -0.22960000
C        2.10270000      -2.87570000      -0.72470000
N        1.79840000      -4.18160000      -0.34420000
C        0.71280000      -4.05150000       0.35120000
N       -0.05840000      -5.04710000       0.90420000
O        0.25450000      -2.78730000       0.48650000
H        0.58520000       1.79170000      -0.43380000
H       -0.93600000       1.72670000       0.33850000
H       -0.72690000      -0.54800000       0.79390000
H        2.96640000      -2.64140000      -1.32510000
H        0.44660000      -5.91790000       0.98490000
H       -0.53240000      -4.78490000       1.75690000
