16
Properties=species:S:1:pos:R:3 gdb_26435=T pbc="F F F"
C       -1.04420000       1.05820000       0.15120000
N       -0.08090000      -0.03590000       0.03140000
C        0.75310000      -0.33020000       1.08940000
O        0.74240000       0.23690000       2.15740000
C        0.08070000      -0.69000000      -1.19480000
C        1.09120000      -0.68910000      -2.12250000
N        0.78640000      -1.52010000      -3.17340000
C       -0.39830000      -2.01430000      -2.89640000
N       -0.87680000      -1.55130000      -1.70850000
H       -0.82220000       1.84470000      -0.57660000
H       -2.06660000       0.70370000      -0.01680000
H       -0.96150000       1.45520000       1.16310000
H        1.43940000      -1.15840000       0.83670000
H        2.01450000      -0.13130000      -2.08450000
H       -0.95780000      -2.70120000      -3.51410000
H       -1.74180000      -1.80580000      -1.26070000
