16
Properties=species:S:1:pos:R:3 gdb_124401=T pbc="F F F"
C       -0.02520000       1.56670000       0.05660000
C       -0.02170000       0.01850000       0.05680000
C        0.76180000      -0.50730000       1.17490000
C        1.40490000      -0.91230000       2.10570000
C       -1.43200000      -0.52260000       0.07380000
N       -1.98690000      -0.91320000      -1.04870000
O       -3.28020000      -1.30550000      -0.71630000
C       -3.45510000      -1.13950000       0.60270000
C       -2.32980000      -0.64630000       1.17460000
H        0.99900000       1.94500000       0.01090000
H       -0.58090000       1.93550000      -0.80920000
H       -0.49420000       1.95260000       0.96560000
H        0.43110000      -0.32040000      -0.88230000
H        1.97940000      -1.28400000       2.91790000
H       -4.42430000      -1.41880000       0.98620000
H       -2.14600000      -0.41910000       2.21080000
