22
Properties=species:S:1:pos:R:3 gdb_6235=T pbc="F F F"
C       -0.55830000       1.46260000       0.12610000
C       -0.01580000       0.03870000       0.02430000
C       -1.10820000      -0.89800000      -0.50590000
C        1.32130000      -0.15180000      -0.75910000
C        1.80860000      -1.13420000       0.33750000
C        0.70770000      -0.57070000       1.28500000
C        1.25670000       0.44830000       2.28080000
O       -0.10750000      -1.51640000       1.95690000
H        0.20110000       2.17500000       0.46130000
H       -0.91700000       1.80200000      -0.85250000
H       -1.40400000       1.51770000       0.82130000
H       -1.44950000      -0.54970000      -1.48740000
H       -0.75290000      -1.92570000      -0.61460000
H       -1.96780000      -0.92100000       0.16970000
H        1.23520000      -0.54440000      -1.77540000
H        1.91740000       0.76510000      -0.79230000
H        1.60490000      -2.17700000       0.08410000
H        2.84650000      -1.04670000       0.67130000
H        1.89400000       1.19500000       1.79800000
H        0.44590000       0.96660000       2.80080000
H        1.87330000      -0.06350000       3.03130000
H        0.37520000      -1.83490000       2.72690000
