21
Properties=species:S:1:pos:R:3 gdb_77380=T pbc="F F F"
C        0.02870000       1.59740000       0.07520000
C        0.05100000       0.07880000      -0.02010000
C        0.76520000      -0.61970000      -1.18590000
C        0.36750000      -0.65890000      -2.63090000
C        2.22050000      -0.75360000      -0.69590000
O        2.33480000      -0.12470000       0.57840000
C        1.03330000      -0.72400000       0.89300000
C        0.81480000      -0.97000000       2.35290000
C        1.21180000      -1.76690000      -0.27920000
H        1.04660000       1.99380000       0.05150000
H       -0.53470000       2.03550000      -0.75590000
H       -0.44800000       1.93020000       1.00430000
H       -0.95470000      -0.34590000       0.08560000
H        0.40810000       0.33930000      -3.08200000
H        1.03510000      -1.30780000      -3.20880000
H       -0.65240000      -1.04090000      -2.75660000
H        3.08890000      -0.80490000      -1.34020000
H        0.83270000      -0.02290000       2.90310000
H       -0.15580000      -1.44710000       2.52040000
H        1.59810000      -1.61570000       2.76010000
H        1.14530000      -2.84410000      -0.35400000
