15
Properties=species:S:1:pos:R:3 gdb_5367=T pbc="F F F"
C        0.02120000       1.43270000      -0.12260000
N       -0.00560000      -0.01580000      -0.13630000
C       -1.10920000      -0.63420000       0.05760000
C       -1.12530000      -2.09830000       0.04180000
C       -2.26760000      -2.77260000       0.24210000
N       -3.44280000      -2.06960000       0.46630000
C       -3.40110000      -0.70110000       0.47610000
N       -2.35270000       0.01050000       0.29340000
H        0.73000000       1.77040000       0.64480000
H        0.41490000       1.79250000      -1.08220000
H       -0.94990000       1.90500000       0.06070000
H       -0.19190000      -2.61580000      -0.13570000
H       -2.34900000      -3.85190000       0.24320000
H       -4.31260000      -2.55070000       0.61910000
H       -4.36140000      -0.21840000       0.65800000
