15
Properties=species:S:1:pos:R:3 gdb_31885=T pbc="F F F"
C       -0.18100000       1.55420000      -0.16120000
C        0.07160000       0.04380000      -0.00730000
C        0.84980000      -0.54160000      -1.13050000
C        2.06380000      -1.14940000      -1.25070000
N        2.28880000      -1.49280000      -2.56790000
C        1.22150000      -1.08630000      -3.18600000
O        0.29850000      -0.49660000      -2.38000000
C        0.92060000      -1.18730000      -4.56800000
N        0.66900000      -1.26670000      -5.69450000
H        0.76170000       2.10760000      -0.19750000
H       -0.73430000       1.76470000      -1.08010000
H       -0.76630000       1.92780000       0.68320000
H        0.62240000      -0.15840000       0.91650000
H       -0.88810000      -0.48130000       0.07630000
H        2.78600000      -1.36270000      -0.47880000
