23
Properties=species:S:1:pos:R:3 gdb_58891=T pbc="F F F"
C       -0.33150000       1.59790000      -0.27280000
C       -0.06490000       0.10450000      -0.01780000
C       -1.38680000      -0.64370000       0.20440000
C        0.80650000      -0.48780000      -1.11930000
C        0.23460000      -0.95270000      -2.45490000
C        0.87310000      -1.93980000      -1.50670000
O        2.19510000      -2.35030000      -1.73360000
C        2.98350000      -1.17700000      -1.92920000
C        2.26470000      -0.02940000      -1.18720000
H        0.59970000       2.16670000      -0.35480000
H       -0.89110000       1.73730000      -1.20480000
H       -0.91970000       2.03550000       0.54060000
H        0.51430000       0.02420000       0.91430000
H       -2.04170000      -0.57900000      -0.67150000
H       -1.22440000      -1.70170000       0.43060000
H       -1.93020000      -0.20530000       1.04740000
H       -0.84460000      -0.99830000      -2.55270000
H        0.74790000      -0.69010000      -3.37430000
H        0.28310000      -2.72410000      -1.04810000
H        3.98890000      -1.37930000      -1.54980000
H        3.06900000      -0.95460000      -3.00210000
H        2.40650000       0.92720000      -1.69930000
H        2.64990000       0.07850000      -0.16650000
