15
Properties=species:S:1:pos:R:3 gdb_24003=T pbc="F F F"
N       -0.01560000      -1.19430000      -0.11410000
C       -0.05820000      -0.03870000      -0.02300000
C       -0.09370000       1.36460000       0.09070000
C       -1.15460000       2.26800000      -0.04770000
C       -0.68420000       3.59120000       0.16170000
C        0.66670000       3.45330000       0.42590000
C        2.08650000       3.88760000       0.75440000
C        2.42710000       2.34700000       0.69180000
N        1.00040000       2.14530000       0.38140000
H       -2.16840000       1.97930000      -0.27950000
H       -1.27050000       4.49460000       0.11960000
H        2.58940000       4.49370000      -0.00250000
H        2.23280000       4.34420000       1.73590000
H        3.09830000       2.04100000      -0.11370000
H        2.73940000       1.89080000       1.63390000
