20
Properties=species:S:1:pos:R:3 gdb_94772=T pbc="F F F"
C        0.02140000       1.56320000       0.04410000
C        0.04690000       0.03390000       0.01850000
C        0.78860000      -0.56490000      -1.20410000
C        1.28810000      -1.95890000      -0.76130000
C        1.49210000      -1.81700000       0.73400000
N        2.20980000      -0.57310000       1.12640000
C        0.75440000      -0.59550000       1.21290000
C        1.58680000      -2.98550000       1.62900000
O        1.49750000      -4.13650000       1.27760000
H        1.04020000       1.96030000       0.09390000
H       -0.45520000       1.96110000      -0.85780000
H       -0.53450000       1.94260000       0.90810000
H       -0.98510000      -0.34280000       0.03250000
H        0.14960000      -0.60970000      -2.08970000
H        1.64410000       0.07030000      -1.44830000
H        0.53660000      -2.73690000      -0.93140000
H        2.19920000      -2.26590000      -1.28200000
H        2.61700000      -0.69250000       2.05350000
H        0.28670000      -0.57270000       2.19400000
H        1.75200000      -2.71580000       2.70180000
