13
Properties=species:S:1:pos:R:3 gdb_127211=T pbc="F F F"
C       -0.03960000       1.47770000       0.00920000
N       -0.01250000       0.01170000       0.00110000
C       -1.22600000      -0.64490000       0.00450000
O       -2.30720000      -0.10920000       0.01440000
N       -1.07040000      -2.03040000      -0.00420000
N        0.08760000      -2.71660000      -0.01530000
N        1.18100000      -2.09710000      -0.01840000
C        1.21810000      -0.66330000      -0.00950000
O        2.27280000      -0.08530000      -0.01380000
H        0.99260000       1.81950000       0.00190000
H       -0.57370000       1.84180000      -0.87070000
H       -0.55760000       1.83250000       0.90250000
H       -1.90520000      -2.59840000      -0.00220000
