20
Properties=species:S:1:pos:R:3 gdb_14047=T pbc="F F F"
C        0.20580000       1.41510000      -0.51170000
C        1.44050000       1.57310000       0.41600000
C        1.28650000       0.07210000       0.80700000
C       -0.16410000       0.12260000       0.26720000
C        2.24970000      -0.89040000       0.09840000
C        3.35420000      -1.06810000       1.14810000
C        2.53530000      -1.06120000       2.44360000
O        1.40870000      -0.22090000       2.19400000
H       -0.52590000       2.22500000      -0.51020000
H        0.48840000       1.20640000      -1.54710000
H        2.38840000       1.89300000      -0.02710000
H        1.21980000       2.20360000       1.28120000
H       -0.85850000       0.32790000       1.08610000
H       -0.52360000      -0.74250000      -0.29720000
H        1.74780000      -1.84710000      -0.09010000
H        2.60960000      -0.50540000      -0.85870000
H        3.94000000      -1.98140000       1.01910000
H        4.04360000      -0.21720000       1.12680000
H        2.19040000      -2.07470000       2.69870000
H        3.08820000      -0.66800000       3.30370000
