15
Properties=species:S:1:pos:R:3 gdb_123832=T pbc="F F F"
C       -0.00240000       1.41350000       0.01220000
C        1.44030000       1.96170000       0.01370000
C        2.17300000       1.21570000      -1.04870000
C        1.70920000       0.06610000      -1.60480000
C        0.42810000      -0.59130000      -1.20660000
O       -0.03470000      -0.01170000      -0.00010000
O        2.54250000      -0.35720000      -2.53640000
N        3.63540000       0.63570000      -2.54490000
N        3.36300000       1.49550000      -1.67820000
H       -0.53570000       1.71210000       0.91720000
H       -0.54800000       1.81170000      -0.85750000
H        1.43000000       3.03940000      -0.18070000
H        1.90270000       1.81190000       0.99640000
H       -0.31660000      -0.49070000      -2.01410000
H        0.56710000      -1.65940000      -1.01380000
