16
Properties=species:S:1:pos:R:3 gdb_34649=T pbc="F F F"
N        0.15450000      -1.16080000      -0.33630000
C        0.02910000      -0.02650000      -0.15170000
C       -0.08770000       1.40160000       0.10730000
N       -1.19900000       1.94930000      -0.17990000
C       -1.49930000       3.33330000       0.11960000
C       -0.47550000       4.37990000      -0.38060000
C        0.84240000       4.33760000       0.33160000
C        1.48030000       3.24700000       0.76400000
N        1.08090000       1.91380000       0.65010000
H       -2.47300000       3.55200000      -0.32970000
H       -1.61740000       3.45070000       1.20500000
H       -0.34290000       4.23350000      -1.46000000
H       -0.91860000       5.37570000      -0.26470000
H        1.32610000       5.28500000       0.54480000
H        2.43550000       3.33730000       1.26950000
H        1.78530000       1.22520000       0.86490000
