23
Properties=species:S:1:pos:R:3 gdb_114318=T pbc="F F F"
C       -0.15850000       1.18010000       0.61680000
C       -0.38590000       0.53120000      -0.75350000
C       -1.58470000      -0.40390000      -0.75130000
O       -1.93180000      -0.96010000      -2.05400000
C       -2.11380000      -2.25240000      -1.46370000
C       -0.81130000      -2.80770000      -0.97750000
C        0.50410000      -2.62110000      -1.70480000
C       -1.57780000      -1.80270000      -0.11690000
C       -2.02980000      -2.10040000       1.28470000
H        0.67730000       1.88470000       0.58190000
H       -1.04480000       1.73150000       0.95000000
H        0.07280000       0.43070000       1.38120000
H       -0.57320000       1.30760000      -1.50620000
H        0.51410000      -0.00160000      -1.06850000
H       -2.46170000       0.14600000      -0.37300000
H       -2.99240000      -2.81790000      -1.75630000
H       -0.94120000      -3.80310000      -0.55240000
H        0.45490000      -1.76520000      -2.38020000
H        1.34140000      -2.47590000      -1.01360000
H        0.72500000      -3.50790000      -2.30880000
H       -1.24370000      -1.88510000       2.01860000
H       -2.90860000      -1.50310000       1.55480000
H       -2.29800000      -3.15600000       1.39750000
