18
Properties=species:S:1:pos:R:3 gdb_116379=T pbc="F F F"
O        0.12010000       1.36450000      -0.12290000
C        0.03300000      -0.00890000       0.16870000
C       -1.40470000      -0.52200000       0.14390000
O       -2.13220000       0.06880000       1.16050000
C       -3.37440000      -0.56510000       1.42710000
C       -4.45310000      -0.17320000       0.42390000
N       -4.25260000      -0.53360000      -0.96660000
C       -3.15530000      -0.49310000      -1.58040000
O       -1.87970000      -0.20810000      -1.17820000
H       -0.37450000       1.50300000      -0.93900000
H        0.62100000      -0.62130000      -0.53270000
H        0.43440000      -0.15610000       1.17520000
H       -1.43230000      -1.62050000       0.24450000
H       -3.24190000      -1.65840000       1.43990000
H       -3.67480000      -0.24410000       2.42920000
H       -5.40200000      -0.61410000       0.75300000
H       -4.58390000       0.91710000       0.46800000
H       -3.14370000      -0.66790000      -2.65660000
