16
Properties=species:S:1:pos:R:3 gdb_9169=T pbc="F F F"
C       -0.03220000       1.34100000       0.24180000
O       -0.04090000      -0.06230000      -0.04950000
C        0.67680000      -0.42910000      -1.13220000
O        1.29040000       0.33600000      -1.82470000
C        0.57100000      -1.94260000      -1.31160000
C        1.30700000      -2.45970000      -2.45270000
C        1.91080000      -2.90390000      -3.39290000
C        2.64670000      -3.42580000      -4.53480000
H        0.98630000       1.68890000       0.43150000
H       -0.44700000       1.91060000      -0.59370000
H       -0.64980000       1.46340000       1.13160000
H        0.90960000      -2.40560000      -0.37580000
H       -0.49650000      -2.18810000      -1.38140000
H        3.40560000      -4.15180000      -4.22290000
H        1.97960000      -3.92700000      -5.24470000
H        3.15890000      -2.62040000      -5.07230000
