15
Properties=species:S:1:pos:R:3 gdb_3533=T pbc="F F F"
O        0.24100000       1.42830000      -0.17590000
C        0.08250000       0.03660000      -0.06780000
C        0.06210000      -0.64220000       1.31660000
C       -1.45290000      -0.28230000       1.55430000
C       -1.81990000      -1.74200000       1.88150000
C       -0.77000000      -1.84910000       0.75830000
C       -1.32610000      -0.58530000       0.01370000
H       -0.34240000       1.85070000       0.46410000
H        0.75930000      -0.40180000      -0.80800000
H        0.83840000      -0.69570000       2.08180000
H       -1.84320000       0.63010000       2.00990000
H       -1.52680000      -2.11500000       2.86820000
H       -2.83830000      -2.06120000       1.63730000
H       -0.35650000      -2.73730000       0.27890000
H       -2.13980000      -0.57370000      -0.71350000
