16
Properties=species:S:1:pos:R:3 gdb_1077=T pbc="F F F"
C       -0.01010000       1.55020000       0.00940000
C       -0.02290000       0.01860000       0.00310000
N       -1.36200000      -0.54560000       0.01270000
C       -2.10920000      -0.80690000       1.13560000
C       -3.35400000      -1.23820000       0.73840000
C       -3.36590000      -1.23420000      -0.68340000
C       -2.12800000      -0.80050000      -1.09900000
H        1.01950000       1.92190000       0.00160000
H       -0.52670000       1.94620000      -0.86950000
H       -0.51040000       1.93870000       0.90090000
H        0.49630000      -0.36140000      -0.88270000
H        0.51230000      -0.36890000       0.87600000
H       -1.68550000      -0.66690000       2.11790000
H       -4.15810000      -1.53690000       1.39340000
H       -4.18080000      -1.52930000      -1.32650000
H       -1.72080000      -0.65470000      -2.08750000
