14
Properties=species:S:1:pos:R:3 gdb_3141=T pbc="F F F"
N       -0.08290000       1.19280000      -0.27610000
C       -0.04710000      -0.03120000      -0.00670000
O        0.99290000      -0.84120000       0.42030000
C        0.12150000      -2.01940000       0.45810000
C       -1.03590000      -1.14470000      -0.01160000
C       -2.47530000      -1.09260000       0.41580000
C       -2.12490000      -1.39740000      -1.01520000
H        0.82750000       1.63550000      -0.14760000
H        0.47270000      -2.78610000      -0.23800000
H        0.05390000      -2.42170000       1.47260000
H       -2.84160000      -1.90230000       1.03810000
H       -2.87760000      -0.11350000       0.65040000
H       -2.28730000      -0.62710000      -1.76080000
H       -2.25220000      -2.41500000      -1.36920000
