19
Properties=species:S:1:pos:R:3 gdb_13193=T pbc="F F F"
C       -0.20160000       1.50830000       0.05370000
C        0.04390000       0.00120000       0.04100000
C        0.79750000      -0.47300000       1.28230000
O        1.22200000       0.28130000       2.14310000
N        0.96890000      -1.81660000       1.37280000
C        0.69150000      -2.95880000       0.49940000
C        1.43430000      -3.86170000       1.52730000
C        1.70930000      -2.58290000       2.37330000
H        0.74260000       2.05260000       0.12710000
H       -0.71950000       1.82320000      -0.85680000
H       -0.80750000       1.79640000       0.91630000
H       -0.90240000      -0.55050000      -0.03160000
H        0.62210000      -0.29050000      -0.84650000
H       -0.37480000      -3.17540000       0.36360000
H        1.16110000      -2.89390000      -0.48970000
H        0.80100000      -4.60230000       2.01620000
H        2.32530000      -4.35530000       1.13890000
H        2.75980000      -2.28640000       2.46130000
H        1.25770000      -2.56090000       3.37030000
