16
Properties=species:S:1:pos:R:3 gdb_24259=T pbc="F F F"
C       -0.05800000       1.51230000      -0.00140000
C        1.43810000       1.88410000      -0.01930000
N        2.21360000       1.44660000       1.16040000
C        2.29060000       0.64960000      -0.09920000
C        1.30070000      -0.44230000      -0.11110000
C        0.01350000       0.00700000      -0.02570000
N       -0.87520000      -1.02810000       0.08890000
C       -0.11700000      -2.10700000       0.06260000
N        1.22120000      -1.81080000      -0.04560000
H       -0.54950000       1.89960000       0.89730000
H       -0.57810000       1.93420000      -0.87000000
H        1.74420000       2.79630000      -0.52060000
H        3.04600000       2.03100000       1.22930000
H        3.22120000       0.62200000      -0.65580000
H       -0.46960000      -3.12720000       0.09800000
H        1.97540000      -2.47590000      -0.06740000
