19
Properties=species:S:1:pos:R:3 gdb_61862=T pbc="F F F"
C       -0.15640000       1.51230000       0.11850000
C        0.00320000      -0.01100000       0.05310000
C        0.56100000      -0.55190000       1.38700000
C        0.67890000      -2.07020000       1.42520000
N        1.93690000      -2.57160000       1.52820000
O       -0.30470000      -2.79460000       1.36530000
N       -1.26570000      -0.67450000      -0.24370000
C       -1.87150000      -0.55690000      -1.45220000
O       -1.53450000       0.20170000      -2.34100000
H        0.80860000       1.98930000       0.32000000
H       -0.53980000       1.88090000      -0.83330000
H       -0.85550000       1.79060000       0.91410000
H        0.71550000      -0.24540000      -0.75120000
H        1.52160000      -0.06650000       1.58240000
H       -0.12220000      -0.26750000       2.19530000
H        2.75230000      -1.98620000       1.55660000
H        2.05550000      -3.57200000       1.53120000
H       -1.47700000      -1.49210000       0.31840000
H       -2.74260000      -1.23650000      -1.54220000
