21
Properties=species:S:1:pos:R:3 gdb_67632=T pbc="F F F"
C       -0.11420000       1.51120000       0.00300000
C        0.00850000       0.01770000      -0.00600000
C        0.87360000      -0.82020000      -0.98660000
C        1.13240000      -2.12780000      -0.26250000
C        0.94580000      -1.95380000       1.23280000
C       -0.14410000      -0.89870000       1.20120000
C       -1.04970000      -1.07560000      -0.01070000
C       -2.54640000      -1.00170000      -0.00810000
C       -0.17980000      -1.90860000      -0.99140000
H        0.82440000       1.98870000       0.31150000
H       -0.37110000       1.90080000      -0.98930000
H       -0.89380000       1.83950000       0.69830000
H        1.47370000      -0.43760000      -1.80170000
H        1.85420000      -2.82470000      -0.67310000
H        0.62060000      -2.87850000       1.72390000
H        1.85730000      -1.60080000       1.72950000
H       -0.57020000      -0.49030000       2.11150000
H       -2.90310000      -0.23630000       0.68930000
H       -2.93990000      -0.75310000      -1.00100000
H       -2.99450000      -1.95670000       0.29420000
H       -0.53910000      -2.51710000      -1.81070000
