11
Properties=species:S:1:pos:R:3 gdb_3854=T pbc="F F F"
N        0.05720000       1.39550000       0.07640000
C        0.02600000       0.03740000       0.02600000
C       -1.07900000      -0.79810000       0.02040000
N       -2.42360000      -0.39380000      -0.00320000
N       -0.58120000      -2.07290000       0.02850000
N        0.65600000      -2.12990000       0.02890000
O        1.13440000      -0.65580000       0.03330000
H        0.88920000       1.84660000      -0.26950000
H       -0.81730000       1.83800000      -0.16570000
H       -2.91700000      -0.62080000       0.85430000
H       -2.93700000      -0.80720000      -0.77430000
