21
Properties=species:S:1:pos:R:3 gdb_60555=T pbc="F F F"
O       -0.25720000       1.52110000       0.18140000
C       -0.04570000       0.11690000       0.06070000
C        0.72210000      -0.22770000      -1.19940000
C        0.43690000      -1.50970000      -1.95300000
C        0.02880000      -0.18270000      -2.53590000
C        0.62770000      -0.46200000       1.30500000
O        0.69510000      -1.86460000       1.29240000
C        1.73970000       0.29060000       1.99720000
C        0.37680000       0.13340000       2.64940000
H        0.53060000       1.96880000      -0.14310000
H       -1.04780000      -0.32730000      -0.00440000
H        1.76260000       0.09490000      -1.18030000
H        1.27010000      -2.03600000      -2.40620000
H       -0.34240000      -2.15710000      -1.56600000
H       -1.02630000       0.06850000      -2.53950000
H        0.58020000       0.19510000      -3.38940000
H        1.26270000      -2.12110000       0.55700000
H        2.55670000      -0.30210000       2.39250000
H        2.01760000       1.27690000       1.64070000
H       -0.25860000       1.00890000       2.69860000
H        0.29590000      -0.56180000       3.47680000
