15
Properties=species:S:1:pos:R:3 gdb_124898=T pbc="F F F"
C        0.16230000       1.46340000       0.31210000
C       -0.03610000       0.01040000      -0.04400000
C        0.54090000      -0.56880000      -1.27580000
O        1.12960000      -0.82620000      -0.00610000
C       -1.25040000      -0.62280000       0.52560000
N       -2.18660000      -0.05090000       1.22630000
C       -3.03780000      -1.10150000       1.46310000
N       -2.66830000      -2.24420000       0.95470000
O       -1.46170000      -1.92850000       0.31940000
H        1.09020000       1.82530000      -0.13560000
H       -0.67370000       2.06760000      -0.04950000
H        0.22010000       1.58820000       1.39640000
H        0.05930000      -1.42150000      -1.74940000
H        1.10740000       0.08710000      -1.93540000
H       -3.95270000      -1.01090000       2.03020000
