13
Properties=species:S:1:pos:R:3 gdb_129720=T pbc="F F F"
N       -0.15160000       1.43570000      -0.04870000
C       -0.06170000       0.02960000      -0.00690000
C       -1.13620000      -0.81250000      -0.08770000
O       -2.44400000      -0.57290000      -0.21590000
N       -0.62230000      -2.07440000      -0.00960000
C       -1.32780000      -3.29360000      -0.04680000
O       -0.81450000      -4.36990000       0.02680000
N        0.76270000      -1.99410000       0.11850000
N        1.06730000      -0.74510000       0.11720000
H        0.37300000       1.82000000      -0.82900000
H        0.22130000       1.85850000       0.79630000
H       -2.53790000       0.39190000      -0.24750000
H       -2.41070000      -3.11260000      -0.15270000
