16
Properties=species:S:1:pos:R:3 gdb_37956=T pbc="F F F"
C        0.02930000       1.41080000      -0.01270000
C        1.46140000       2.05860000       0.08740000
N        2.31810000       1.13470000       0.83340000
C        2.48420000       0.11240000       0.12640000
O        2.54710000      -1.20310000       0.54550000
C        1.91040000      -1.58130000      -0.70450000
C        0.69190000      -0.68650000      -1.03650000
O       -0.02770000      -0.02700000      -0.04390000
C        2.09150000      -0.22870000      -1.31110000
H       -0.53940000       1.65860000       0.88520000
H       -0.49490000       1.83200000      -0.88100000
H        1.84630000       2.28280000      -0.91680000
H        1.37020000       3.00850000       0.62050000
H        2.07560000      -2.58740000      -1.06460000
H        0.09870000      -1.03550000      -1.88270000
H        2.51780000       0.12920000      -2.23780000
