19
Properties=species:S:1:pos:R:3 gdb_99670=T pbc="F F F"
C        0.25540000       1.31670000       0.31560000
N       -0.11300000      -0.01040000      -0.16780000
C        0.57400000      -0.44570000      -1.37140000
C        2.05330000      -0.47060000      -1.23050000
N        3.20060000      -0.47410000      -1.08580000
C        0.03920000      -1.83170000      -1.75790000
C        0.80750000      -2.66970000      -2.80030000
C        1.04630000      -3.64490000      -1.62840000
O        0.30670000      -2.79320000      -0.71730000
H        1.32920000       1.43840000       0.52830000
H       -0.02910000       2.06740000      -0.43020000
H       -0.30510000       1.52700000       1.23000000
H        0.03660000      -0.71150000       0.55140000
H        0.33720000       0.25440000      -2.18460000
H       -1.03790000      -1.72230000      -1.93000000
H        0.19650000      -3.05510000      -3.61690000
H        1.70590000      -2.20240000      -3.20550000
H        0.57700000      -4.63010000      -1.72440000
H        2.08730000      -3.76450000      -1.31250000
