18
Properties=species:S:1:pos:R:3 gdb_36251=T pbc="F F F"
C       -0.39930000      -0.52490000      -1.26570000
C       -0.11950000       0.06760000      -0.25800000
C        0.25310000       0.80150000       0.94550000
C        1.59160000       1.52320000       0.78460000
C        1.69720000       2.84620000       0.03180000
C        1.13140000       3.60340000       1.27330000
C        2.30910000       4.57690000       1.35930000
C        2.90110000       3.22870000       0.94630000
N        1.97020000       2.46250000       1.92930000
H       -0.65850000      -1.05430000      -2.14870000
H       -0.53640000       1.51950000       1.19810000
H        0.32750000       0.11380000       1.79780000
H        2.38520000       0.79500000       0.57940000
H        1.55190000       3.07950000      -1.02770000
H        0.08900000       3.76130000       1.55230000
H        2.34180000       5.37970000       0.61870000
H        2.56880000       4.93290000       2.35960000
H        3.94160000       2.91990000       0.83100000
