17
Properties=species:S:1:pos:R:3 gdb_35880=T pbc="F F F"
C       -0.55870000      -1.11350000      -0.70310000
C       -0.31970000      -0.00380000      -0.30880000
C       -0.04520000       1.34020000       0.16350000
C       -0.20490000       1.55510000       1.68950000
C        0.72910000       2.75460000       1.97380000
O        1.44210000       3.02930000       0.76070000
C        1.40440000       1.86960000      -0.05680000
C        2.44080000       0.89770000       0.30640000
C        3.29910000       0.11900000       0.62420000
H       -0.76120000      -2.09530000      -1.05320000
H       -0.69750000       2.04750000      -0.36210000
H       -1.24320000       1.74920000       1.96400000
H        0.12580000       0.66160000       2.22270000
H        0.18660000       3.66700000       2.23800000
H        1.43390000       2.52540000       2.78230000
H        1.55530000       2.20000000      -1.08880000
H        4.05920000      -0.57150000       0.89540000
