18
Properties=species:S:1:pos:R:3 gdb_107502=T pbc="F F F"
O        0.31470000       1.23770000       0.44170000
C        0.02430000      -0.04840000      -0.09500000
C       -1.43630000      -0.37670000      -0.02050000
O       -1.90330000      -1.51410000      -0.76470000
C       -2.55200000      -0.25450000      -0.98510000
C       -3.58550000      -0.07580000       0.14220000
C       -2.40650000      -0.18480000       1.14080000
C       -2.29310000      -0.68220000       2.52450000
N       -2.22400000       0.76650000       2.23130000
H       -0.15520000       1.89080000      -0.08810000
H        0.36690000      -0.15810000      -1.13360000
H        0.59840000      -0.75640000       0.51340000
H       -2.57070000       0.12130000      -2.00210000
H       -4.04090000       0.91690000       0.17320000
H       -4.35590000      -0.84890000       0.18220000
H       -3.18360000      -0.99350000       3.06380000
H       -1.38470000      -1.20730000       2.81100000
H       -1.25670000       1.08450000       2.23740000
