23
Properties=species:S:1:pos:R:3 gdb_71611=T pbc="F F F"
C       -0.03720000       1.52920000       0.00800000
C        0.01430000       0.01900000      -0.00080000
C        0.96730000      -0.78150000      -0.93920000
C        0.73280000      -1.91020000       0.08510000
C        0.64800000      -0.81210000       1.18590000
C       -0.28940000      -1.29980000       2.30010000
C       -1.08840000      -2.44150000       1.60170000
C       -0.80010000      -2.18720000       0.11110000
C       -1.30440000      -0.75200000      -0.23690000
H        0.95750000       1.96380000       0.15560000
H       -0.43370000       1.91730000      -0.93800000
H       -0.68570000       1.89930000       0.81100000
H        0.65640000      -0.93190000      -1.97840000
H        1.99470000      -0.40690000      -0.91070000
H        1.39270000      -2.77490000       0.17150000
H        1.60520000      -0.40010000       1.51240000
H        0.27060000      -1.66500000       3.16610000
H       -0.94380000      -0.49970000       2.66370000
H       -0.70560000      -3.42220000       1.90700000
H       -2.15850000      -2.42210000       1.83110000
H       -1.15820000      -2.97240000      -0.55770000
H       -2.12250000      -0.42760000       0.41510000
H       -1.64510000      -0.64970000      -1.27230000
