19
Properties=species:S:1:pos:R:3 gdb_35946=T pbc="F F F"
C        0.18620000      -1.26380000       0.41680000
C        0.07590000      -0.09100000       0.17770000
C       -0.06490000       1.34330000      -0.06850000
C       -0.86200000       1.97750000       1.10150000
O       -1.30200000       3.28840000       0.83740000
C       -0.33200000       4.30320000       1.01910000
C        0.64000000       4.44960000      -0.15370000
C        1.57420000       3.28640000      -0.38100000
C        1.28920000       1.98490000      -0.34000000
H        0.28220000      -2.30290000       0.61310000
H       -0.69270000       1.47740000      -0.96350000
H       -1.76340000       1.38020000       1.26540000
H       -0.25150000       1.94100000       2.01610000
H       -0.89750000       5.23390000       1.13590000
H        0.22960000       4.12720000       1.95020000
H        0.05200000       4.63630000      -1.06410000
H        1.23070000       5.35790000       0.01510000
H        2.59720000       3.55370000      -0.63720000
H        2.08630000       1.27980000      -0.55720000
