17
Properties=species:S:1:pos:R:3 gdb_40088=T pbc="F F F"
C       -0.07320000       1.46690000      -0.12780000
O        1.16240000       0.77600000       0.11190000
C       -0.02680000       0.01170000      -0.01850000
C       -0.48220000      -0.97750000       1.08910000
C       -0.20050000      -2.14520000       0.06570000
O       -1.16370000      -3.11410000      -0.29410000
C       -1.49190000      -2.90130000      -1.68090000
C       -1.03750000      -1.48160000      -1.99260000
C       -0.23240000      -1.09940000      -1.00800000
H       -0.44830000       2.05690000       0.70760000
H       -0.16440000       1.93390000      -1.10750000
H        0.11090000      -0.96540000       2.00610000
H       -1.54760000      -0.88760000       1.31100000
H        0.77150000      -2.61540000       0.26650000
H       -1.00600000      -3.66690000      -2.30720000
H       -2.57640000      -3.01190000      -1.80780000
H       -1.45220000      -0.89210000      -2.80040000
