15
Properties=species:S:1:pos:R:3 gdb_131647=T pbc="F F F"
O        0.10250000       1.40380000      -0.02190000
C        0.03550000      -0.00860000      -0.01380000
C       -1.37840000      -0.51630000      -0.10780000
C       -1.88400000      -1.33100000      -1.04730000
C       -3.27390000      -1.73030000      -0.97830000
N       -3.81710000      -2.52130000      -1.83220000
C       -3.96440000      -1.11420000       0.16650000
N       -3.46540000      -0.33080000       1.05130000
O       -2.11170000      -0.02480000       0.93010000
H       -0.41100000       1.72210000       0.72870000
H        0.59710000      -0.36240000      -0.88150000
H        0.50450000      -0.43110000       0.88920000
H       -1.26380000      -1.68970000      -1.85870000
H       -4.80400000      -2.67040000      -1.60910000
H       -5.02320000      -1.31810000       0.31810000
