16
Properties=species:S:1:pos:R:3 gdb_86855=T pbc="F F F"
O       -0.14720000       1.43080000      -0.22330000
C       -0.03300000       0.03420000       0.03970000
C       -1.43110000      -0.56810000       0.00740000
C       -1.71110000      -0.76990000      -1.51090000
C       -0.35620000      -1.26040000      -2.07440000
C        0.68580000      -0.58640000      -1.18080000
O        1.86190000      -0.47570000      -1.40680000
C       -2.82330000      -1.67230000      -1.78190000
N       -3.69910000      -2.39770000      -1.98890000
H        0.74370000       1.76960000      -0.37400000
H        0.50950000      -0.15910000       0.97300000
H       -1.43350000      -1.53730000       0.51560000
H       -2.16900000       0.07700000       0.48660000
H       -1.94680000       0.20570000      -1.94810000
H       -0.25810000      -2.34590000      -1.95000000
H       -0.19300000      -1.03550000      -3.12960000
