17
Properties=species:S:1:pos:R:3 gdb_28480=T pbc="F F F"
C       -0.00370000       1.50050000      -0.03770000
C        0.02980000      -0.00210000      -0.00820000
N        0.01010000      -0.64520000      -1.17520000
C        0.05320000      -1.98460000      -1.14450000
N        0.10430000      -2.63380000      -2.35870000
N        0.08760000      -2.74530000      -0.04390000
C        0.09560000      -2.08750000       1.11280000
C        0.07820000      -0.69840000       1.21280000
N        0.16920000      -0.02750000       2.44660000
H        0.82980000       1.92020000       0.53730000
H        0.05230000       1.84990000      -1.06890000
H       -0.92870000       1.89030000       0.40880000
H       -0.23120000      -2.09950000      -3.14400000
H       -0.16730000      -3.60360000      -2.33520000
H        0.11850000      -2.69750000       2.01650000
H       -0.02810000      -0.63040000       3.23530000
H       -0.40930000       0.80080000       2.50310000
