16
Properties=species:S:1:pos:R:3 gdb_53213=T pbc="F F F"
C       -0.14350000       1.40680000       0.09570000
C       -0.08190000      -0.04700000       0.05320000
C       -0.00530000      -1.24950000       0.01200000
C        0.03200000      -2.70140000      -0.03100000
N        0.20580000      -3.37060000       1.26830000
C       -1.09490000      -3.81220000       1.39880000
O       -1.69820000      -4.31490000       2.30500000
C       -1.40910000      -3.37890000      -0.07110000
O       -2.52050000      -2.60070000      -0.34500000
H        0.84300000       1.84860000      -0.08110000
H       -0.82430000       1.79510000      -0.66930000
H       -0.49860000       1.76060000       1.06940000
H        0.72640000      -3.05910000      -0.79780000
H        0.92110000      -3.23250000       1.96790000
H       -1.43340000      -4.23480000      -0.74990000
H       -2.44760000      -1.77950000       0.15780000
