19
Properties=species:S:1:pos:R:3 gdb_80947=T pbc="F F F"
C       -0.06920000       1.61050000      -0.00090000
C        0.00020000       0.09530000       0.00260000
C        1.23880000      -0.63010000      -0.59500000
N        2.03250000      -0.11740000       0.58610000
C        0.73180000      -0.64900000       1.17190000
C        0.43190000      -0.63680000       2.64100000
C        0.85860000      -1.90510000       0.22610000
C       -0.31410000      -2.69650000      -0.11330000
N       -1.24820000      -3.32780000      -0.37310000
H        0.88920000       2.05100000       0.27740000
H       -0.34890000       1.97760000      -0.99420000
H       -0.83440000       1.96050000       0.70060000
H       -0.95540000      -0.35520000      -0.27640000
H        1.62780000      -0.60120000      -1.61310000
H        2.79880000      -0.76440000       0.79880000
H        0.45050000       0.38880000       3.02210000
H       -0.55880000      -1.06070000       2.83270000
H        1.16810000      -1.22300000       3.20100000
H        1.70400000      -2.55830000       0.46110000
