19
Properties=species:S:1:pos:R:3 gdb_90919=T pbc="F F F"
C       -0.42290000       1.43420000      -0.20270000
C        0.05200000       0.00980000      -0.02180000
O        1.20330000      -0.31580000      -0.92090000
C        2.08630000      -0.08300000       0.21660000
C        2.93910000      -0.90710000       1.26330000
C        2.00460000      -0.10170000       2.32010000
C        0.98250000      -0.36420000       1.17290000
O        0.87970000      -1.81360000       1.21950000
C        2.24500000      -2.25500000       1.26240000
H        0.37330000       2.15870000      -0.01100000
H       -0.77490000       1.57870000      -1.22820000
H       -1.25400000       1.64320000       0.47900000
H       -0.75010000      -0.71640000      -0.16890000
H        2.44570000       0.94910000       0.19260000
H        4.02760000      -0.86890000       1.30610000
H        1.83150000      -0.58630000       3.28300000
H        2.30680000       0.93800000       2.44200000
H        2.47910000      -2.86040000       0.37880000
H        2.43130000      -2.84890000       2.16520000
