25
Properties=species:S:1:pos:R:3 gdb_122014=T pbc="F F F"
C       -0.12980000       1.50000000      -0.01660000
C        0.16620000      -0.00150000      -0.02780000
C        0.63790000      -0.51300000       1.32750000
O        0.88770000      -1.89970000       1.22150000
C        1.47060000      -2.51060000       2.36870000
C        0.44210000      -2.72990000       3.48220000
C        2.09080000      -3.82610000       1.89600000
C        3.21610000      -3.63720000       0.87700000
O        3.80240000      -4.86800000       0.47650000
H        0.76050000       2.08110000       0.24860000
H       -0.46700000       1.84150000      -0.99950000
H       -0.91410000       1.74800000       0.70730000
H       -0.72910000      -0.56320000      -0.31850000
H        0.93510000      -0.23290000      -0.77390000
H        1.55570000       0.01670000       1.63740000
H       -0.12740000      -0.30200000       2.09210000
H        2.27380000      -1.85480000       2.74970000
H        0.91160000      -3.20610000       4.34870000
H        0.00460000      -1.78590000       3.81900000
H       -0.36770000      -3.37570000       3.12770000
H        2.48070000      -4.37730000       2.75890000
H        1.29510000      -4.44100000       1.45270000
H        2.84260000      -3.06620000       0.01680000
H        4.03120000      -3.05690000       1.32500000
H        3.13380000      -5.36460000      -0.00560000
