19
Properties=species:S:1:pos:R:3 gdb_108026=T pbc="F F F"
C       -0.25320000       1.24590000       0.06840000
O        0.29680000      -0.05470000      -0.04500000
C        0.86720000      -0.53440000       1.12080000
C        2.16020000       0.03300000       1.69380000
C        2.31690000      -0.91370000       2.86290000
C        0.96070000      -1.34720000       3.40270000
C        1.76250000      -2.28830000       2.52390000
C        0.78760000      -2.02610000       1.35260000
C       -0.01900000      -1.08560000       2.23630000
H        0.52080000       2.00390000       0.25170000
H       -0.74280000       1.46650000      -0.88290000
H       -0.99410000       1.30080000       0.87790000
H        2.98380000      -0.03850000       0.97480000
H        2.05970000       1.07670000       2.01220000
H        3.15220000      -0.83810000       3.54850000
H        0.71830000      -1.41990000       4.45420000
H        2.24680000      -3.22340000       2.77000000
H        0.44530000      -2.72010000       0.59800000
H       -1.08980000      -0.94450000       2.28460000
