19
Properties=species:S:1:pos:R:3 gdb_92780=T pbc="F F F"
C       -0.06430000       1.53750000       0.02940000
C        0.00980000       0.00690000       0.02100000
C        0.87960000      -0.51180000      -1.16280000
C        2.23170000      -0.73350000      -0.54190000
C        2.16440000      -0.73630000       0.79650000
C        3.28220000      -0.92990000       1.71190000
O        3.16830000      -0.90400000       2.92450000
C        0.73400000      -0.55200000       1.28040000
O        0.60400000       0.30840000       2.39120000
H        0.93540000       1.98320000       0.05660000
H       -0.57250000       1.89440000      -0.87240000
H       -0.60780000       1.89720000       0.90440000
H       -1.00540000      -0.39500000      -0.04100000
H        0.49690000      -1.45960000      -1.56800000
H        0.91110000       0.18860000      -2.00520000
H        3.13750000      -0.89270000      -1.11990000
H        4.27340000      -1.09990000       1.24020000
H        0.32270000      -1.54730000       1.52720000
H        1.26010000       0.00980000       3.03670000
