17
Properties=species:S:1:pos:R:3 gdb_28704=T pbc="F F F"
C       -0.00680000       1.52430000       0.16290000
C       -0.00390000       0.04860000      -0.05400000
C       -0.04840000      -0.70710000      -1.19980000
C       -0.02060000      -2.08770000      -0.84150000
C        0.04090000      -2.13210000       0.53090000
N        0.09040000      -3.20150000       1.43220000
C        0.08810000      -4.52900000       1.10110000
O        0.04340000      -4.97500000      -0.02310000
N        0.05080000      -0.84030000       1.00670000
H        0.89790000       1.87420000       0.67740000
H       -0.05400000       2.03630000      -0.80080000
H       -0.86810000       1.85900000       0.75590000
H       -0.09680000      -0.31120000      -2.20320000
H       -0.04220000      -2.94650000      -1.48770000
H        0.13010000      -2.98420000       2.41590000
H        0.13330000      -5.16180000       2.00890000
H        0.09370000      -0.57180000       1.97470000
