12
Properties=species:S:1:pos:R:3 gdb_25145=T pbc="F F F"
O       -0.05220000      -0.05930000       0.00420000
C        0.01630000       1.14410000       0.00900000
N       -1.18000000       1.92060000       0.02990000
C       -1.16160000       3.26490000       0.03590000
N       -0.06810000       3.96320000       0.02340000
C        1.08390000       3.19940000       0.00290000
N        1.17780000       1.89480000      -0.00440000
C        2.30160000       3.95320000      -0.01070000
C        3.31960000       4.59230000      -0.02210000
H       -2.04790000       1.40170000       0.04000000
H       -2.12520000       3.76970000       0.05230000
H        4.22350000       5.15120000      -0.03220000
