21
Properties=species:S:1:pos:R:3 gdb_59205=T pbc="F F F"
C       -0.22810000       1.21470000       1.09240000
N       -0.14880000       0.33620000      -0.06230000
C        1.11630000      -0.37970000      -0.12450000
C       -1.37840000      -0.34700000      -0.31850000
C       -1.53870000      -1.38470000      -1.46020000
N       -0.85450000      -2.41320000      -0.58000000
C       -1.84950000      -1.72090000       0.33170000
C       -2.89680000      -1.81190000      -0.80000000
O       -4.00700000      -0.95750000      -0.73250000
H        0.63260000       1.89220000       1.09890000
H       -1.13740000       1.82200000       1.04030000
H       -0.23580000       0.67620000       2.05870000
H        1.26760000      -1.09040000       0.70430000
H        1.19240000      -0.94220000      -1.05430000
H        1.92680000       0.35850000      -0.09330000
H       -2.18080000       0.39120000      -0.30550000
H       -1.29100000      -1.27890000      -2.51890000
H       -1.20330000      -3.35030000      -0.81430000
H       -1.96470000      -2.00380000       1.37880000
H       -3.18290000      -2.84400000      -1.05020000
H       -4.46810000      -0.98950000      -1.57680000
