18
Properties=species:S:1:pos:R:3 gdb_126971=T pbc="F F F"
C       -0.05380000       1.51510000      -0.01300000
C        0.08470000      -0.00260000       0.00380000
N        0.63590000      -0.48240000      -1.26100000
C        0.77680000      -1.83910000      -1.44890000
N        0.23740000      -2.74400000      -0.66100000
O        0.58110000      -3.97920000      -1.22690000
C        1.30840000      -3.76190000      -2.34090000
C        1.48040000      -2.43350000      -2.54990000
N        2.20590000      -1.69860000      -3.50660000
H        0.92070000       2.00230000      -0.13790000
H       -0.70280000       1.84020000      -0.83150000
H       -0.48040000       1.86940000       0.92940000
H        0.70050000      -0.32530000       0.85730000
H       -0.89230000      -0.47750000       0.13510000
H        1.44770000       0.03080000      -1.58290000
H        1.63810000      -4.64150000      -2.87210000
H        2.68750000      -2.29630000      -4.16690000
H        1.60470000      -1.06740000      -4.02770000
