19
Properties=species:S:1:pos:R:3 gdb_72999=T pbc="F F F"
C       -0.06280000       1.47940000       0.16800000
C       -0.01440000      -0.01210000       0.18200000
O       -0.71250000      -0.69730000      -0.85770000
C       -1.11070000      -1.73620000       0.08330000
C       -0.27440000      -1.09780000       1.17910000
C        1.16150000      -0.90710000       0.67190000
C        1.85240000      -1.87190000      -0.26940000
C        2.03360000      -0.24270000       1.67290000
O        1.64910000       0.38120000       2.63800000
H        0.40150000       1.86400000      -0.74670000
H       -1.10220000       1.82120000       0.18890000
H        0.45940000       1.88980000       1.03290000
H       -2.18780000      -1.67890000       0.27150000
H       -0.84450000      -2.74050000      -0.26220000
H       -0.49410000      -1.03380000       2.23590000
H        1.27440000      -1.99750000      -1.18710000
H        2.83880000      -1.48750000      -0.55040000
H        1.99850000      -2.85640000       0.18830000
H        3.12230000      -0.35060000       1.46600000
