13
Properties=species:S:1:pos:R:3 gdb_2964=T pbc="F F F"
N        0.18150000       1.33780000      -0.66300000
C        0.10500000       0.21760000      -0.05220000
C       -1.27590000      -0.38440000       0.03890000
O       -1.51960000      -1.46490000       0.51040000
N        1.11130000      -0.46680000       0.60810000
C        1.48910000      -1.83790000       0.32460000
C        2.42840000      -0.70300000       0.04870000
H        1.14540000       1.68060000      -0.69040000
H       -2.04710000       0.27870000      -0.39960000
H        1.63740000      -2.47310000       1.19210000
H        1.02730000      -2.32590000      -0.52850000
H        2.58970000      -0.42330000      -0.99080000
H        3.26620000      -0.51330000       0.71280000
