16
Properties=species:S:1:pos:R:3 gdb_24199=T pbc="F F F"
C       -0.01590000       1.52150000      -0.06490000
C        1.54370000       1.32970000      -0.01670000
C        1.14380000       0.16610000       0.96200000
N       -0.09920000      -0.01410000       0.06530000
C        0.60530000      -0.35990000      -1.18670000
C        1.65930000       0.47880000      -1.27010000
O        2.39460000       0.27200000      -2.37360000
C        1.75600000      -0.76760000      -3.02470000
C        0.64800000      -1.19500000      -2.33730000
H       -0.43930000       1.99900000       0.82410000
H       -0.46030000       1.92130000      -0.97780000
H        2.25840000       2.11730000       0.21560000
H        1.79160000      -0.71030000       1.01620000
H        0.84370000       0.49960000       1.96030000
H        2.21460000      -1.07530000      -3.94880000
H       -0.01350000      -1.99090000      -2.64080000
