19
Properties=species:S:1:pos:R:3 gdb_109714=T pbc="F F F"
C       -0.28630000       1.10910000      -0.02100000
O        0.60900000       0.01850000       0.10600000
C        0.94730000      -0.57740000      -1.10900000
C        1.48990000      -1.98460000      -0.97630000
O        1.53660000      -2.56160000       0.29430000
C        0.14240000      -1.75130000      -1.60520000
C       -1.18260000      -2.30640000      -1.11230000
C       -1.43780000      -2.55780000      -2.61720000
O       -0.15740000      -1.98000000      -2.98060000
H        0.16250000       1.92190000      -0.60970000
H       -1.22700000       0.81020000      -0.50150000
H       -0.49500000       1.47270000       0.98760000
H        1.40310000       0.08310000      -1.84900000
H        2.32140000      -2.26650000      -1.61820000
H        1.34760000      -1.85470000       0.92450000
H       -1.08910000      -3.19460000      -0.48570000
H       -1.85610000      -1.59360000      -0.63400000
H       -1.50480000      -3.60910000      -2.91720000
H       -2.26960000      -2.00030000      -3.06150000
