19
Properties=species:S:1:pos:R:3 gdb_39112=T pbc="F F F"
C       -0.18110000       1.36200000       0.24000000
C        1.21090000       0.85630000      -0.09970000
C        1.78320000       0.12720000       1.10980000
O        0.58910000      -0.69780000       1.23020000
C        0.04970000      -0.10210000       0.04190000
C       -0.65330000      -0.99920000      -0.92450000
C       -2.15080000      -1.30960000      -0.67460000
C       -2.36880000      -0.63090000      -2.04030000
O       -0.96320000      -0.30490000      -2.15430000
H       -0.40400000       1.74490000       1.23260000
H       -0.67730000       1.86040000      -0.58580000
H        1.75580000       1.17390000      -0.97770000
H        2.65480000      -0.49570000       0.87980000
H        1.97550000       0.71290000       2.01690000
H       -0.03720000      -1.89000000      -1.10720000
H       -2.41190000      -2.36630000      -0.61530000
H       -2.57840000      -0.77890000       0.17710000
H       -2.69360000      -1.29630000      -2.84950000
H       -2.99630000       0.26750000      -2.04590000
