21
Properties=species:S:1:pos:R:3 gdb_70616=T pbc="F F F"
C       -0.33450000       1.40530000       0.07820000
C       -0.11320000      -0.08680000       0.02800000
C       -0.44290000      -0.95200000       1.19710000
N        0.95980000      -0.64950000       0.87850000
C        1.62800000      -1.71420000       0.10080000
C        0.72150000      -2.07520000      -1.09970000
C       -0.09820000      -0.80450000      -1.30820000
C       -1.19150000      -0.68590000      -2.29970000
N        0.12220000      -0.06630000      -2.56460000
H        0.44950000       1.94670000      -0.46270000
H       -1.30510000       1.68180000      -0.35030000
H       -0.31560000       1.75380000       1.11320000
H       -0.80590000      -0.49360000       2.11330000
H       -0.82310000      -1.95500000       1.01940000
H        2.58230000      -1.30590000      -0.24760000
H        1.84770000      -2.56850000       0.74810000
H        1.28780000      -2.32410000      -1.99880000
H        0.07050000      -2.92500000      -0.87110000
H       -1.43870000      -1.52900000      -2.93980000
H       -2.03420000      -0.04030000      -2.06300000
H        0.06370000       0.93680000      -2.40730000
