18
Properties=species:S:1:pos:R:3 gdb_112529=T pbc="F F F"
C        0.36230000       0.60070000      -0.67920000
O       -0.08530000      -0.57100000      -0.02820000
C       -1.45430000      -0.57630000       0.30020000
C       -2.37070000      -0.97830000      -0.88780000
C       -2.24270000      -2.47950000      -0.46300000
C       -1.23670000      -3.22370000      -1.19890000
N       -0.43280000      -3.81920000      -1.77910000
C       -1.73990000      -1.95870000       0.94910000
O       -0.70530000      -2.59700000       1.60650000
H        1.43430000       0.48300000      -0.84870000
H       -0.13460000       0.74870000      -1.64770000
H        0.18950000       1.49050000      -0.05640000
H       -1.72240000       0.32600000       0.86630000
H       -3.39430000      -0.61780000      -0.76580000
H       -2.01480000      -0.72440000      -1.88640000
H       -3.17030000      -3.05570000      -0.44340000
H       -2.59750000      -1.91140000       1.62530000
H        0.10770000      -2.36360000       1.13710000
