17
Properties=species:S:1:pos:R:3 gdb_34367=T pbc="F F F"
C        0.00280000      -1.14500000      -0.35660000
C        0.00580000       0.03730000      -0.13810000
C       -0.03890000       1.46290000       0.12600000
C       -0.40370000       2.34330000      -1.11550000
C        1.07340000       2.81280000      -1.13720000
N        1.31760000       2.13520000       0.17880000
C        1.23480000       2.94410000       1.32200000
N        0.23720000       2.81670000       2.10410000
C       -0.66730000       1.82470000       1.50780000
H        0.01260000      -2.19000000      -0.54590000
H       -0.75850000       1.80340000      -1.99340000
H       -1.10900000       3.13880000      -0.86400000
H        1.67560000       2.36110000      -1.92920000
H        1.24810000       3.89180000      -1.12270000
H        2.04540000       3.64400000       1.51180000
H       -1.67740000       2.24020000       1.41430000
H       -0.73240000       0.94070000       2.14950000
