20
Properties=species:S:1:pos:R:3 gdb_77992=T pbc="F F F"
C       -0.06760000       1.56820000      -0.00960000
C       -0.00610000       0.04520000      -0.01350000
C        1.07940000      -0.55710000      -0.96040000
C        1.83170000      -1.12020000       0.27060000
C        3.25190000      -1.17910000       0.39680000
C        4.45320000      -1.20890000       0.45790000
C        0.75650000      -0.54630000       1.19240000
N        0.99020000      -1.96320000       1.10560000
C        0.02890000      -2.90680000       0.55580000
H        0.92690000       2.00270000       0.14110000
H       -0.46080000       1.94890000      -0.95790000
H       -0.71640000       1.93370000       0.79400000
H       -1.01290000      -0.36510000      -0.14780000
H        0.76030000      -1.29230000      -1.70470000
H        1.65860000       0.22060000      -1.46240000
H        5.51200000      -1.24320000       0.52700000
H        0.87810000      -0.06070000       2.15650000
H       -0.52560000      -2.55610000      -0.32490000
H        0.56010000      -3.82320000       0.28270000
H       -0.69560000      -3.15500000       1.33750000
