16
Properties=species:S:1:pos:R:3 gdb_34497=T pbc="F F F"
N        0.05690000      -1.13590000       0.04510000
C       -0.00680000       0.02110000       0.02690000
C       -0.04040000       1.43610000       0.01020000
C       -1.11240000       2.22630000      -0.12760000
C       -0.69060000       3.63270000      -0.08870000
C       -1.30560000       4.72170000      -0.93500000
C       -1.48860000       4.73500000       0.56600000
O        0.71240000       3.63780000       0.08230000
C        1.19830000       2.30100000       0.15360000
H       -2.13810000       1.90670000      -0.24980000
H       -0.60530000       5.43210000      -1.35950000
H       -2.15110000       4.47460000      -1.56760000
H       -2.46190000       4.49720000       0.98110000
H       -0.90930000       5.45420000       1.13380000
H        1.70970000       2.13390000       1.11210000
H        1.92480000       2.11820000      -0.65070000
