19
Properties=species:S:1:pos:R:3 gdb_89684=T pbc="F F F"
C       -0.07720000       1.58130000       0.09970000
C        0.01980000       0.06870000      -0.04150000
C        1.11260000      -0.52410000      -1.00410000
C        1.71450000      -1.26260000       0.18790000
O        2.03790000      -0.28450000       1.19640000
C        0.68230000      -0.70230000       1.12570000
C        0.03180000      -1.24050000       2.35980000
C        2.39410000      -2.56590000       0.24840000
O        2.50080000      -3.30990000      -0.69770000
H        0.89430000       2.00100000       0.37550000
H       -0.39300000       2.04010000      -0.84280000
H       -0.80480000       1.86570000       0.86770000
H       -0.95850000      -0.36650000      -0.26930000
H        0.70750000      -1.20100000      -1.75760000
H        1.78430000       0.19610000      -1.47700000
H       -0.28820000      -0.41570000       3.00710000
H       -0.85410000      -1.83020000       2.10570000
H        0.72400000      -1.86640000       2.92770000
H        2.79300000      -2.82060000       1.25410000
