17
Properties=species:S:1:pos:R:3 gdb_126257=T pbc="F F F"
C        0.02010000       1.58700000       0.26290000
C        0.00190000       0.06700000       0.01640000
C       -1.37350000      -0.50690000      -0.09110000
C       -2.14990000      -0.79110000      -1.19740000
O       -1.79220000      -0.61660000      -2.50340000
C       -3.36470000      -1.28400000      -0.67690000
O       -4.40730000      -1.68700000      -1.44370000
N       -3.37290000      -1.31500000       0.64460000
N       -2.15330000      -0.82660000       0.98280000
H        1.04800000       1.95630000       0.33270000
H       -0.48020000       2.11660000      -0.55270000
H       -0.49640000       1.84340000       1.19340000
H        0.53290000      -0.15850000      -0.91380000
H        0.55170000      -0.44240000       0.81840000
H       -2.50700000      -0.96000000      -3.04990000
H       -5.10340000      -1.99050000      -0.84870000
H       -1.89840000      -0.79040000       1.95340000
