15
Properties=species:S:1:pos:R:3 gdb_28128=T pbc="F F F"
N        0.11100000       1.35290000       0.16580000
C       -0.06510000      -0.01980000       0.05230000
C       -1.18430000      -0.81040000       0.01790000
C       -0.65940000      -2.14570000       0.00770000
C        0.71420000      -2.05500000       0.02700000
O        1.10030000      -0.73690000       0.05790000
C        1.29370000      -3.34170000      -0.00730000
C        0.21350000      -4.20610000      -0.04310000
N       -0.96990000      -3.47900000      -0.03590000
H        0.94550000       1.67310000      -0.31050000
H       -0.69690000       1.87480000      -0.14490000
H       -2.20520000      -0.46560000       0.00320000
H        2.33370000      -3.62370000      -0.00280000
H        0.19130000      -5.28320000      -0.06610000
H       -1.88940000      -3.88090000      -0.05090000
