23
Properties=species:S:1:pos:R:3 gdb_60215=T pbc="F F F"
C        0.07790000       1.56870000      -0.06790000
C        0.03040000       0.04170000       0.00370000
O        0.72480000      -0.43780000       1.15570000
C       -1.40220000      -0.50380000      -0.07220000
C       -1.48930000      -2.02860000      -0.07970000
C       -1.27230000      -2.85000000       1.24150000
C       -2.62700000      -3.53380000       1.02180000
C       -3.71750000      -2.50210000       0.99780000
C       -2.86900000      -2.68920000      -0.23180000
H        1.11070000       1.92000000       0.00740000
H       -0.34870000       1.93760000      -1.00630000
H       -0.49550000       2.01410000       0.75520000
H        0.60320000      -0.36930000      -0.83800000
H        0.27460000      -0.08680000       1.93220000
H       -1.98410000      -0.09200000       0.76520000
H       -1.87220000      -0.11510000      -0.98620000
H       -0.81330000      -2.41500000      -0.85050000
H       -0.41260000      -3.51920000       1.18030000
H       -1.18580000      -2.26860000       2.16490000
H       -2.83730000      -4.58450000       1.18110000
H       -4.72820000      -2.88970000       0.91530000
H       -3.64080000      -1.60460000       1.60780000
H       -3.31250000      -2.98360000      -1.17640000
