20
Properties=species:S:1:pos:R:3 gdb_83028=T pbc="F F F"
C        0.33300000       1.63930000       0.08270000
C        0.10570000       0.14710000      -0.01730000
C        0.54030000      -0.66380000      -1.23090000
C        1.35940000      -0.04080000      -2.34960000
N        2.74560000       0.28270000      -2.03910000
C        3.21000000       0.09770000      -0.87660000
C        4.63440000       0.41680000      -0.52890000
O        2.55770000      -0.37780000       0.22810000
C        1.23700000      -0.84220000       0.08600000
H        1.25480000       1.95150000      -0.41330000
H       -0.49390000       2.18760000      -0.38090000
H        0.39610000       1.95410000       1.12960000
H       -0.81820000      -0.19310000       0.44450000
H       -0.12280000      -1.46480000      -1.54170000
H        1.37500000      -0.73520000      -3.19840000
H        0.88240000       0.87320000      -2.72890000
H        5.13790000       0.83300000      -1.40040000
H        4.67130000       1.13280000       0.29850000
H        5.15600000      -0.48670000      -0.19670000
H        1.10520000      -1.75040000       0.66360000
