15
Properties=species:S:1:pos:R:3 gdb_29085=T pbc="F F F"
C       -0.01810000       1.54440000       0.05920000
C       -0.00350000       0.05340000      -0.06100000
C       -0.03420000      -0.62710000      -1.21710000
N       -0.01660000      -2.01830000      -1.21160000
C        0.03150000      -2.81940000      -0.08960000
O        0.04490000      -4.02820000      -0.14450000
C        0.06690000      -2.05800000       1.23910000
O        0.11020000      -2.62150000       2.30820000
N        0.04580000      -0.68020000       1.12440000
H        0.87900000       1.91370000       0.57110000
H       -0.05730000       2.00740000      -0.92850000
H       -0.88760000       1.89160000       0.63090000
H       -0.07280000      -0.14450000      -2.18180000
H       -0.03980000      -2.52270000      -2.08680000
H        0.06960000      -0.19080000       2.00930000
