18
Properties=species:S:1:pos:R:3 gdb_34007=T pbc="F F F"
C        0.01490000      -1.14500000       0.12980000
C        0.01280000       0.05390000       0.03890000
C       -0.04720000       1.49350000      -0.07910000
C        0.50290000       2.14270000      -1.31870000
N        1.25850000       2.19100000      -0.07530000
C        1.30550000       3.48540000       0.63290000
C        0.46130000       3.48690000       1.91280000
C       -0.94290000       3.02400000       1.61700000
C       -1.17970000       2.12360000       0.66550000
H        0.03560000      -2.20320000       0.21390000
H        0.92110000       1.52250000      -2.10690000
H        0.00430000       3.05190000      -1.65180000
H        2.35580000       3.69360000       0.86450000
H        0.94840000       4.29600000      -0.01730000
H        0.92010000       2.83670000       2.67040000
H        0.45660000       4.49600000       2.33770000
H       -1.76280000       3.44460000       2.19210000
H       -2.18050000       1.76680000       0.44250000
