7
Properties=species:S:1:pos:R:3 gdb_11=T pbc="F F F"
C       -0.00290000       1.50990000       0.00870000
C        0.02610000       0.00330000      -0.03750000
O        0.94230000      -0.65510000      -0.45680000
H        0.92280000       1.92630000      -0.39150000
H       -0.86200000       1.87850000      -0.56480000
H       -0.15050000       1.84390000       1.04290000
H       -0.89440000      -0.48640000       0.35770000
