19
Properties=species:S:1:pos:R:3 gdb_92033=T pbc="F F F"
O       -0.01290000       1.42530000       0.03070000
C        0.03860000       0.00430000      -0.03540000
C        0.86120000      -0.56860000       1.13630000
C        0.84000000      -2.09040000       1.19680000
N        0.02090000      -2.69770000       2.26710000
C       -0.43320000      -2.78570000       0.87030000
C       -1.60790000      -1.95780000       0.41970000
N       -1.99590000      -0.78300000       1.21830000
C       -1.35960000      -0.58250000      -0.09640000
H       -0.49230000       1.64220000       0.83930000
H        0.54350000      -0.21330000      -0.98530000
H        1.88520000      -0.19400000       1.05220000
H        0.43810000      -0.18290000       2.06830000
H        1.76340000      -2.59840000       0.92900000
H        0.42400000      -3.58880000       2.54660000
H       -0.36790000      -3.75260000       0.37600000
H       -2.41220000      -2.52200000      -0.04690000
H       -3.00070000      -0.64720000       1.15670000
H       -1.97060000      -0.21650000      -0.91850000
