17
Properties=species:S:1:pos:R:3 gdb_93340=T pbc="F F F"
C       -0.17730000       1.53920000       0.01150000
C        0.06230000       0.03150000       0.02270000
C        0.89340000      -0.44330000      -1.19310000
N        1.69220000      -1.51290000      -0.63020000
C        1.85350000      -1.39290000       0.73710000
O        2.64010000      -1.98350000       1.42570000
N        0.87480000      -0.44580000       1.15660000
C        0.52040000      -0.20970000       2.47580000
O        1.08710000      -0.61590000       3.45470000
H        0.77120000       2.08080000       0.07320000
H       -0.67910000       1.82260000      -0.91960000
H       -0.81370000       1.86220000       0.83900000
H       -0.90220000      -0.49310000       0.02600000
H        0.25020000      -0.79400000      -2.00480000
H        1.51240000       0.38060000      -1.57790000
H        2.45970000      -1.92380000      -1.13750000
H       -0.38350000       0.42970000       2.52960000
