17
Properties=species:S:1:pos:R:3 gdb_125383=T pbc="F F F"
C       -0.13140000       1.51400000       0.13620000
C       -0.09710000       0.02470000      -0.00610000
C       -0.11070000      -0.73310000      -1.15700000
N       -0.06620000      -2.02990000      -0.77550000
N       -0.02320000      -2.19410000       0.56720000
C       -0.04190000      -0.95110000       1.03260000
N       -0.01150000      -0.61930000       2.38520000
C        0.04170000      -1.42640000       3.50040000
N        0.07430000      -2.69720000       3.47800000
H        0.75760000       1.90060000       0.65150000
H       -0.17220000       2.00060000      -0.84190000
H       -1.00810000       1.85510000       0.70230000
H       -0.14810000      -0.44190000      -2.19540000
H       -0.06170000      -2.84930000      -1.35640000
H       -0.03180000       0.36870000       2.57070000
H        0.05180000      -0.80790000       4.40840000
H        0.11100000      -3.05130000       4.43200000
