23
Properties=species:S:1:pos:R:3 gdb_40711=T pbc="F F F"
C       -0.22450000       1.29630000      -0.31380000
C        1.21230000       1.15480000       0.12470000
C        0.32160000      -0.06160000       0.05480000
C       -0.12960000      -0.75610000       1.30910000
C       -1.34850000      -1.72980000       1.22670000
C       -0.56800000      -2.70680000       2.11510000
C       -1.02590000      -3.22240000       3.44910000
C       -0.77050000      -4.17810000       2.30270000
C        0.73330000      -1.93520000       1.86180000
H       -0.91980000       1.76540000       0.37510000
H       -0.42690000       1.50730000      -1.35810000
H        1.99260000       1.26900000      -0.61980000
H        1.48060000       1.52900000       1.10750000
H        0.50980000      -0.73480000      -0.77940000
H       -0.29710000      -0.01430000       2.09800000
H       -2.30840000      -1.36280000       1.60100000
H       -1.49350000      -2.11150000       0.20950000
H       -0.31930000      -3.21460000       4.27360000
H       -2.05550000      -3.04320000       3.74390000
H       -1.62770000      -4.64330000       1.82540000
H        0.10770000      -4.81450000       2.35490000
H        1.34580000      -2.39170000       1.07570000
H        1.37280000      -1.72610000       2.72410000
