17
Properties=species:S:1:pos:R:3 gdb_102070=T pbc="F F F"
C        0.67770000       0.99380000       0.39290000
O        0.26060000      -0.08220000      -0.43680000
C       -1.07370000      -0.51150000      -0.25660000
C       -1.66420000      -0.78140000      -1.64290000
O       -2.71800000      -1.33120000      -1.81610000
C       -1.12110000      -1.80510000       0.59500000
O       -0.18250000      -2.73070000       0.07930000
C       -0.91460000      -1.53530000       2.02380000
C       -0.74270000      -1.32220000       3.19470000
H        1.70780000       1.22430000       0.11190000
H        0.05590000       1.88410000       0.22490000
H        0.64130000       0.72660000       1.45430000
H       -1.68860000       0.26880000       0.21550000
H       -1.03370000      -0.40300000      -2.47580000
H       -2.11170000      -2.24920000       0.44640000
H        0.64610000      -2.24080000      -0.01150000
H       -0.59910000      -1.14940000       4.23300000
