20
Properties=species:S:1:pos:R:3 gdb_36642=T pbc="F F F"
N       -0.15770000      -1.16720000      -0.33940000
C       -0.09660000      -0.02320000      -0.18710000
C        0.00570000       1.42210000       0.00070000
C        1.44500000       1.94840000      -0.19330000
C        1.50020000       3.46360000      -0.04880000
C        1.42930000       4.17740000       1.34530000
C        2.90180000       3.73910000       1.59880000
C        2.85560000       4.22400000       0.11910000
C        2.01500000       5.43010000       0.63120000
H       -0.67580000       1.91250000      -0.70450000
H       -0.35450000       1.66820000       1.00610000
H        2.10390000       1.44090000       0.51540000
H        1.79070000       1.66790000      -1.19490000
H        0.84110000       3.92190000      -0.79790000
H        0.60280000       4.15770000       2.05830000
H        3.47460000       4.36290000       2.28990000
H        3.09790000       2.68250000       1.78490000
H        3.68150000       4.25210000      -0.59360000
H        1.37120000       5.92820000      -0.09910000
H        2.53670000       6.15030000       1.26620000
