18
Properties=species:S:1:pos:R:3 gdb_71649=T pbc="F F F"
C        0.02570000       1.53500000      -0.06190000
C       -0.00240000       0.03220000       0.06000000
C       -1.35390000      -0.67340000      -0.05640000
N       -1.18260000      -1.99860000       0.56930000
C        0.13970000      -2.62890000       0.41680000
C       -0.24220000      -1.88670000       1.67170000
C        0.69380000      -0.72170000       1.25570000
C        1.23940000      -1.57770000       0.10100000
O        0.88630000      -0.62380000      -0.91040000
H        1.04890000       1.91020000       0.02450000
H       -0.36910000       1.84940000      -1.03370000
H       -0.58570000       1.99470000       0.72170000
H       -2.14510000      -0.14920000       0.49210000
H       -1.64930000      -0.77570000      -1.10370000
H        0.16140000      -3.68980000       0.19380000
H       -0.49860000      -2.23430000       2.66480000
H        1.31820000      -0.17760000       1.95860000
H        2.26220000      -1.95220000       0.02870000
