18
Properties=species:S:1:pos:R:3 gdb_41070=T pbc="F F F"
C       -0.04160000       1.44800000      -0.25520000
C        1.45420000       1.58680000       0.21190000
C        1.26990000       0.21460000       0.84460000
C        1.91720000      -1.03010000       1.43690000
C        0.58740000      -1.81900000       1.68850000
C        1.15480000      -0.88470000       2.71190000
N        0.34480000       0.24570000       2.10630000
C       -0.46590000      -0.75450000       1.26460000
C        0.03800000      -0.10830000      -0.02350000
H       -0.74090000       1.95590000       0.40890000
H       -0.24170000       1.74310000      -1.28600000
H        2.14290000       1.56970000      -0.63880000
H        1.71420000       2.41070000       0.88030000
H        2.84890000      -1.53780000       1.22490000
H        0.54770000      -2.90140000       1.67610000
H        1.41510000      -0.98150000       3.75870000
H       -1.51180000      -0.93540000       1.52220000
H        0.11140000      -0.70990000      -0.93140000
