14
Properties=species:S:1:pos:R:3 gdb_130053=T pbc="F F F"
N       -0.00360000       1.31760000       0.14500000
C       -0.00300000      -0.04680000       0.04990000
N       -1.10070000      -0.76530000      -0.02980000
N       -0.58860000      -2.05940000      -0.02290000
C       -1.39180000      -3.19160000      -0.00460000
O       -2.59040000      -3.19250000      -0.05360000
C        0.79080000      -1.99010000       0.02860000
N        1.61290000      -3.08470000       0.09250000
N        1.18970000      -0.74580000       0.07580000
H        0.84350000       1.76240000      -0.17140000
H       -0.85600000       1.76670000      -0.15280000
H       -0.77870000      -4.10930000       0.06940000
H        1.35790000      -3.88570000      -0.46470000
H        2.58690000      -2.83280000       0.00120000
