10
Properties=species:S:1:pos:R:3 gdb_24902=T pbc="F F F"
O       -0.08550000      -0.01060000       0.00410000
C        0.04010000       1.16550000       0.00860000
O       -1.20020000       1.94210000       0.02990000
C       -1.12200000       3.26190000       0.03610000
N       -0.03950000       3.96290000       0.02510000
C        1.10820000       3.20050000       0.00510000
N        1.19800000       1.90920000      -0.00310000
C       -2.40890000       3.91440000       0.05730000
N       -3.43990000       4.43470000       0.07430000
H        2.03530000       3.76900000      -0.00410000
