18
Properties=species:S:1:pos:R:3 gdb_12234=T pbc="F F F"
C       -0.54450000       1.41760000       0.12430000
C        0.02690000       0.00900000       0.02150000
C        0.62820000      -0.58060000      -1.30560000
C        1.08800000       0.45630000      -2.31590000
O        1.79570000      -0.23150000      -3.33640000
C        1.81210000      -1.19310000      -0.49380000
C        1.38380000      -0.30000000       0.68020000
O        1.92720000       0.10600000       1.66700000
H        0.14630000       2.16790000      -0.27140000
H       -1.49220000       1.50770000      -0.41590000
H       -0.72870000       1.66550000       1.17380000
H       -0.69820000      -0.71280000       0.42110000
H       -0.00790000      -1.30990000      -1.81100000
H        0.21920000       0.99590000      -2.72440000
H        1.73340000       1.20230000      -1.82210000
H        2.12340000       0.41700000      -3.96650000
H        1.68290000      -2.25520000      -0.26330000
H        2.81870000      -1.04190000      -0.89000000
