20
Properties=species:S:1:pos:R:3 gdb_105047=T pbc="F F F"
C        0.30980000       0.79810000       1.12170000
C       -0.01740000      -0.03290000      -0.10400000
C        0.68810000       0.25240000      -1.36500000
O        1.06870000      -0.86180000      -0.56100000
C       -1.36640000      -0.71070000      -0.08190000
C       -1.47000000      -1.88180000       0.89860000
O       -2.71980000      -2.52590000       0.81630000
C       -2.57870000       0.09320000      -0.38120000
N       -2.13600000      -0.96550000      -1.30950000
H        1.31840000       1.21030000       1.04090000
H       -0.40120000       1.62240000       1.23460000
H        0.26620000       0.19030000       2.03040000
H        0.25240000       0.00200000      -2.33120000
H        1.39870000       1.07860000      -1.39500000
H       -0.63780000      -2.57210000       0.68810000
H       -1.35770000      -1.52850000       1.92940000
H       -2.89850000      -2.60950000      -0.13210000
H       -3.50360000      -0.12430000       0.14330000
H       -2.44430000       1.12800000      -0.68560000
H       -1.69330000      -0.56600000      -2.13020000
