19
Properties=species:S:1:pos:R:3 gdb_97600=T pbc="F F F"
C        0.01520000       1.53790000       0.13020000
C       -0.01690000       0.01240000      -0.07680000
C       -1.36810000      -0.53820000      -0.04870000
C       -2.49300000      -0.97130000      -0.04300000
C       -3.84690000      -1.52840000       0.02290000
O       -3.83990000      -2.94520000       0.11460000
C       -4.64000000      -0.87770000       1.19120000
C       -6.02500000      -1.32180000       1.25150000
C       -7.17150000      -1.67970000       1.28500000
H        1.04570000       1.90360000       0.10030000
H       -0.55450000       2.04790000      -0.65110000
H       -0.41920000       1.80880000       1.09630000
H        0.45750000      -0.23880000      -1.03390000
H        0.58930000      -0.47540000       0.69730000
H       -4.38340000      -1.31180000      -0.90790000
H       -3.21960000      -3.18780000       0.81120000
H       -4.12170000      -1.11020000       2.13030000
H       -4.59570000       0.21190000       1.07580000
H       -8.18260000      -2.00130000       1.31960000
