21
Properties=species:S:1:pos:R:3 gdb_121897=T pbc="F F F"
C       -0.02170000       1.38490000       0.06510000
O       -0.05780000      -0.00860000       0.25590000
C       -1.32230000      -0.56650000      -0.02900000
C       -1.22420000      -2.07640000       0.14950000
C       -2.57480000      -2.76660000      -0.10670000
O       -3.06180000      -2.45820000      -1.38540000
C       -2.47380000      -4.28750000       0.05070000
C       -2.00260000      -4.85690000       1.36780000
O       -2.77900000      -4.99110000      -0.88970000
H        0.99050000       1.72250000       0.30160000
H       -0.25550000       1.66170000      -0.97510000
H       -0.73310000       1.90780000       0.72460000
H       -2.08910000      -0.15130000       0.65000000
H       -1.63530000      -0.33050000      -1.05650000
H       -0.47580000      -2.47010000      -0.54760000
H       -0.87740000      -2.28860000       1.16680000
H       -3.29180000      -2.41820000       0.66000000
H       -3.18410000      -3.31840000      -1.82140000
H       -0.91440000      -4.75020000       1.44410000
H       -2.43930000      -4.31990000       2.21520000
H       -2.25460000      -5.91670000       1.42060000
