17
Properties=species:S:1:pos:R:3 gdb_93452=T pbc="F F F"
C       -0.06910000       1.55430000      -0.02690000
C        0.03320000       0.03280000      -0.00290000
N        0.75160000      -0.46850000      -1.17130000
C        0.80980000      -1.92110000      -1.21440000
C        1.51410000      -2.46820000       0.01610000
O        2.08270000      -3.53290000       0.05280000
N        1.42500000      -1.65220000       1.13890000
C        0.74610000      -0.44440000       1.26400000
O        0.71100000       0.14230000       2.32000000
H        0.92370000       1.99900000      -0.13420000
H       -0.69060000       1.88040000      -0.86660000
H       -0.51410000       1.91320000       0.90190000
H       -0.99040000      -0.39220000       0.06940000
H        0.32510000      -0.10830000      -2.01740000
H       -0.18310000      -2.41180000      -1.25430000
H        1.37460000      -2.25590000      -2.08670000
H        1.88200000      -1.99350000       1.97690000
