16
Properties=species:S:1:pos:R:3 gdb_5311=T pbc="F F F"
C        0.11410000       1.38520000      -0.38440000
C        0.00940000       0.01240000       0.29260000
O        0.38060000       0.11850000       1.64790000
C       -1.37890000      -0.56820000       0.20810000
N       -2.07980000      -0.90350000       1.26830000
C       -3.27580000      -1.39620000       0.79390000
C       -3.29340000      -1.35750000      -0.57230000
N       -2.07160000      -0.82440000      -0.93600000
H        1.12680000       1.77540000      -0.25410000
H       -0.09190000       1.32280000      -1.45920000
H       -0.59130000       2.08600000       0.07040000
H        0.70600000      -0.67560000      -0.21840000
H       -0.36410000      -0.23690000       2.15840000
H       -4.04640000      -1.74740000       1.46230000
H       -4.03040000      -1.64580000      -1.30290000
H       -1.75450000      -0.65880000      -1.87630000
