16
Properties=species:S:1:pos:R:3 gdb_124910=T pbc="F F F"
C       -0.02650000       1.55360000       0.06060000
C        0.02450000       0.06020000       0.03110000
C       -0.82670000      -0.89640000       0.82500000
C        0.69690000      -0.96950000       0.95110000
C        1.17090000      -1.63890000      -0.31710000
N        1.35130000      -2.76660000      -0.97080000
C        0.87080000      -2.40800000      -2.21580000
N        0.34230000      -1.19190000      -2.33480000
N        0.64450000      -0.67850000      -1.10710000
H        0.94380000       1.98470000      -0.20130000
H       -0.77250000       1.93100000      -0.64660000
H       -0.30650000       1.90140000       1.05910000
H       -1.35330000      -0.46500000       1.67280000
H       -1.35710000      -1.70060000       0.32560000
H        1.23220000      -0.79970000       1.87410000
H        0.93230000      -3.07420000      -3.06510000
