17
Properties=species:S:1:pos:R:3 gdb_18743=T pbc="F F F"
C        0.11810000       1.55610000      -0.12820000
N        0.12930000       0.11660000       0.02780000
C        0.89560000      -0.74830000      -0.89460000
C        1.40410000      -1.58550000       0.30520000
C        2.79820000      -1.14190000       0.81520000
C        2.10910000      -0.01230000       1.60770000
O        2.50750000       0.93820000       2.21770000
C        0.69570000      -0.52600000       1.22660000
H        1.11990000       2.01820000      -0.13440000
H       -0.38280000       1.81080000      -1.06840000
H       -0.45290000       2.00550000       0.69050000
H        0.25720000      -1.26670000      -1.61910000
H        1.70300000      -0.24260000      -1.44680000
H        1.16350000      -2.64540000       0.32870000
H        3.25080000      -1.86430000       1.50440000
H        3.55010000      -0.84870000       0.07620000
H       -0.01310000      -0.72090000       2.03750000
