17
Properties=species:S:1:pos:R:3 gdb_24716=T pbc="F F F"
C        0.14440000       1.59710000      -0.13200000
C        1.62570000       1.51610000       0.34520000
C        1.50080000      -0.03420000       0.50900000
C       -0.01330000       0.06310000       0.05630000
N        0.37720000      -0.73930000      -1.12570000
C        0.23940000      -1.20390000      -2.39850000
N        1.41380000      -1.61560000      -2.84570000
C        2.34960000      -1.35850000      -1.86210000
C        1.70080000      -0.81500000      -0.78040000
H       -0.49820000       2.16990000       0.54040000
H       -0.02170000       1.94360000      -1.15340000
H        2.38560000       1.84230000      -0.36630000
H        1.79240000       2.02860000       1.29530000
H        1.81710000      -0.47950000       1.45100000
H       -0.86440000      -0.32430000       0.61550000
H       -0.69770000      -1.27110000      -2.92840000
H        3.39020000      -1.60250000      -2.00500000
