19
Properties=species:S:1:pos:R:3 gdb_92778=T pbc="F F F"
C        0.65480000       1.68190000      -0.02900000
C        0.13480000       0.23600000       0.03900000
C        0.62630000      -0.66910000      -1.12630000
O        0.84080000       0.09250000      -2.29750000
C        1.88870000      -1.38900000      -0.57490000
C        1.64200000      -1.37820000       0.90740000
C        0.67830000      -0.50630000       1.24410000
C        0.23360000      -0.27330000       2.61970000
O       -0.61650000       0.52940000       2.93950000
H        1.74890000       1.71490000      -0.03690000
H        0.29780000       2.17290000      -0.93670000
H        0.29980000       2.23980000       0.84090000
H       -0.95880000       0.27100000       0.06480000
H       -0.14490000      -1.43400000      -1.30500000
H        1.02950000      -0.51170000      -3.02160000
H        2.02700000      -2.39610000      -0.98460000
H        2.79190000      -0.81560000      -0.82760000
H        2.19350000      -1.99060000       1.61450000
H        0.74010000      -0.90790000       3.38220000
