19
Properties=species:S:1:pos:R:3 gdb_85546=T pbc="F F F"
O        0.30160000       1.21360000      -0.46900000
C        0.04920000      -0.11000000      -0.02050000
C        0.78110000      -0.41160000       1.32010000
C       -0.09180000      -0.30190000       2.55600000
O        0.16400000       0.42240000       3.48990000
C       -1.32660000      -1.19490000       2.51820000
C       -2.12960000      -0.96980000       1.24550000
C       -2.39140000       0.44980000       0.81680000
C       -1.44380000      -0.42040000       0.01360000
H       -0.29270000       1.80450000       0.00620000
H        0.51160000      -0.73910000      -0.78750000
H        1.14200000      -1.44840000       1.28240000
H        1.64400000       0.24970000       1.41350000
H       -0.98530000      -2.23870000       2.55810000
H       -1.92840000      -1.00280000       3.41060000
H       -2.92510000      -1.68960000       1.07840000
H       -3.34610000       0.70430000       0.37150000
H       -1.98050000       1.23500000       1.44760000
H       -1.84040000      -0.75350000      -0.94020000
