14
Properties=species:S:1:pos:R:3 gdb_129960=T pbc="F F F"
N        0.13230000       1.38550000       0.20410000
C        0.02540000       0.00670000       0.03160000
C       -1.04240000      -0.83570000       0.01910000
O       -0.63210000      -2.12230000      -0.10160000
N        0.74980000      -2.15450000      -0.17520000
C        1.11890000      -0.90180000      -0.08970000
O        2.40040000      -0.46950000      -0.13690000
C        3.41060000      -1.38340000       0.02840000
N        4.59030000      -0.99330000      -0.15640000
H        1.02260000       1.74150000      -0.11870000
H       -0.62660000       1.91220000      -0.20600000
H       -2.10760000      -0.68550000       0.08430000
H        3.04880000      -2.37040000       0.32160000
H        5.24030000      -1.75670000       0.02240000
