21
Properties=species:S:1:pos:R:3 gdb_101880=T pbc="F F F"
C        0.90500000       1.59360000       1.15590000
O        0.88350000       0.47980000       0.29480000
C        0.20880000      -0.65780000       0.81070000
C       -1.31230000      -0.50800000       0.79310000
C        0.68110000      -1.81960000      -0.06160000
O        0.13450000      -3.01570000       0.45500000
C        0.50130000      -4.14980000      -0.30460000
C       -0.08910000      -5.35030000       0.27280000
C       -0.56280000      -6.35560000       0.72740000
H        1.33710000       1.34030000       2.13690000
H        1.53200000       2.35330000       0.68200000
H       -0.09400000       2.02210000       1.32070000
H        0.54460000      -0.85200000       1.84290000
H       -1.65080000       0.27250000       1.47990000
H       -1.65230000      -0.25230000      -0.21610000
H       -1.77670000      -1.45110000       1.09120000
H        0.35760000      -1.65500000      -1.10310000
H        1.78150000      -1.85200000      -0.05620000
H        0.16760000      -4.03790000      -1.35060000
H        1.59950000      -4.25450000      -0.33530000
H       -0.98450000      -7.24120000       1.13440000
