17
Properties=species:S:1:pos:R:3 gdb_52206=T pbc="F F F"
O       -0.36630000       0.86230000      -0.85440000
C       -0.04590000       1.45470000       0.15480000
N        1.19580000       1.45500000       0.70690000
C        2.33180000       0.76290000       0.12190000
C        3.38510000       1.74180000      -0.34540000
N        4.11800000       2.43380000       0.72180000
C        4.84880000       1.48660000      -0.15750000
C        5.36380000       0.28280000       0.43590000
C        5.81450000      -0.73040000       0.90010000
H       -0.75570000       2.06610000       0.74710000
H        1.36600000       2.01920000       1.52480000
H        2.77030000       0.07680000       0.85290000
H        1.94750000       0.17860000      -0.71690000
H        3.11370000       2.32110000      -1.22600000
H        4.34240000       3.38640000       0.44630000
H        5.49820000       1.92220000      -0.91390000
H        6.20910000      -1.62330000       1.31840000
