17
Properties=species:S:1:pos:R:3 gdb_73019=T pbc="F F F"
O        0.03870000       1.46070000       0.11480000
C        0.02320000       0.08400000       0.05860000
C       -0.84980000      -0.75310000      -0.87650000
O       -1.06950000      -1.73850000       0.17270000
C       -0.35740000      -0.93110000       1.11600000
C        1.07090000      -0.79330000       0.69650000
C        2.06450000      -1.81000000       0.14710000
O        3.10540000      -1.26380000       0.99350000
C        2.21790000      -0.27610000       1.55890000
H        0.81600000       1.78120000      -0.35720000
H       -1.78700000      -0.24890000      -1.13590000
H       -0.39250000      -1.18880000      -1.77240000
H       -0.73260000      -0.86120000       2.13090000
H        1.84550000      -2.85820000       0.38140000
H        2.31560000      -1.72170000      -0.91820000
H        2.55080000       0.74960000       1.34850000
H        2.10140000      -0.39310000       2.64410000
