18
Properties=species:S:1:pos:R:3 gdb_55360=T pbc="F F F"
C       -0.38000000       1.41460000       0.05740000
C       -0.01070000      -0.05920000       0.11920000
O        0.24360000      -0.62170000       1.15130000
C        0.02730000      -0.77480000      -1.24070000
O        0.28810000      -2.15080000      -1.05290000
C       -0.43880000      -2.93990000      -1.98980000
C       -1.57090000      -2.06660000      -2.48470000
N       -2.35390000      -1.46840000      -1.38490000
C       -1.27440000      -0.69220000      -2.02880000
H        0.11920000       1.92490000      -0.77320000
H       -1.46050000       1.51010000      -0.10200000
H       -0.12070000       1.89540000       1.00140000
H        0.82440000      -0.29390000      -1.83890000
H        0.19780000      -3.23570000      -2.83850000
H       -0.77640000      -3.84250000      -1.47050000
H       -2.04350000      -2.27350000      -3.43890000
H       -3.25200000      -1.15600000      -1.74660000
H       -1.50150000       0.18710000      -2.62100000
