23
Properties=species:S:1:pos:R:3 gdb_98658=T pbc="F F F"
C       -0.36650000       1.55350000      -0.06310000
C       -0.13640000       0.04800000      -0.15890000
C        0.77880000      -0.36550000      -1.30340000
O        1.34170000       0.45050000      -2.00090000
C        0.91340000      -1.85390000      -1.55470000
C       -0.00540000      -2.42620000      -2.69150000
C        1.19590000      -3.28160000      -3.18200000
C        1.42360000      -3.43680000      -4.67710000
C        2.13530000      -2.34940000      -2.36820000
H        0.58180000       2.08350000       0.05480000
H       -0.83850000       1.93500000      -0.97240000
H       -1.00950000       1.79570000       0.78780000
H        0.30750000      -0.34480000       0.76760000
H       -1.08330000      -0.49940000      -0.26840000
H        0.76640000      -2.41610000      -0.62770000
H       -0.91960000      -2.94200000      -2.38850000
H       -0.25870000      -1.64430000      -3.41470000
H        1.15460000      -4.26910000      -2.70770000
H        1.47030000      -2.45930000      -5.16990000
H        2.36540000      -3.95840000      -4.88210000
H        0.61690000      -4.01110000      -5.14690000
H        2.52400000      -1.52940000      -2.97850000
H        2.95750000      -2.80660000      -1.81270000
