21
Properties=species:S:1:pos:R:3 gdb_122238=T pbc="F F F"
C       -0.28570000       1.52010000      -0.01700000
C        0.06410000       0.03110000       0.04690000
C        0.62760000      -0.50620000      -1.27280000
C        0.98120000      -1.99790000      -1.20830000
C        1.54000000      -2.54760000      -2.51360000
C        1.26210000      -3.96160000      -2.91000000
N        0.62830000      -2.85880000      -3.63740000
C        2.80250000      -1.96050000      -2.92420000
N        3.82090000      -1.49200000      -3.20670000
H        0.59650000       2.12300000      -0.25810000
H       -1.04040000       1.71720000      -0.78630000
H       -0.68270000       1.87690000       0.93820000
H        0.79500000      -0.14080000       0.84800000
H       -0.82930000      -0.54500000       0.32320000
H       -0.09970000      -0.33760000      -2.07840000
H        1.52360000       0.06390000      -1.54860000
H        1.71180000      -2.17100000      -0.40840000
H        0.09080000      -2.58570000      -0.94990000
H        2.00200000      -4.51680000      -3.47750000
H        0.67120000      -4.55410000      -2.21620000
H       -0.33110000      -2.72880000      -3.32320000
