17
Properties=species:S:1:pos:R:3 gdb_47165=T pbc="F F F"
O        0.06970000      -0.06710000      -0.20830000
C       -0.01880000       1.11480000       0.01620000
C       -1.32530000       1.79560000       0.44720000
C       -1.20370000       3.29800000       0.80460000
N       -0.01400000       3.59960000       1.62480000
C        1.01040000       3.05280000       1.12690000
N        2.33460000       2.90150000       1.50980000
C        2.53150000       1.73100000       0.60830000
C        1.15620000       2.07690000      -0.02740000
H       -2.07190000       1.63630000      -0.33920000
H       -1.67890000       1.23290000       1.31930000
H       -1.19110000       3.90300000      -0.11390000
H       -2.09370000       3.60400000       1.36040000
H        2.64070000       2.94220000       2.47340000
H        3.40930000       1.81250000      -0.03580000
H        2.53040000       0.76310000       1.11910000
H        1.21000000       2.54870000      -1.01420000
