14
Properties=species:S:1:pos:R:3 gdb_47384=T pbc="F F F"
O       -0.06350000       0.11060000       0.69570000
C       -0.06420000       1.15420000       0.11360000
C       -1.34740000       1.93730000      -0.14530000
O       -1.23640000       3.04780000      -1.01300000
C       -0.07330000       3.79020000      -0.74710000
C        1.14950000       2.92100000      -1.03940000
O        1.12360000       1.70620000      -0.27230000
C        1.24880000       2.59680000      -2.47280000
N        1.33930000       2.36460000      -3.60010000
H       -2.07510000       1.24940000      -0.57980000
H       -1.72430000       2.24400000       0.84380000
H       -0.08220000       4.66640000      -1.39900000
H       -0.03000000       4.12370000       0.30180000
H        2.06690000       3.43740000      -0.73820000
