15
Properties=species:S:1:pos:R:3 gdb_46864=T pbc="F F F"
O        0.16210000      -0.03550000       0.06520000
C        0.03460000       1.16030000       0.06750000
C       -1.29730000       1.89420000       0.09910000
C       -1.37820000       3.01540000       1.16140000
C       -0.04990000       3.66290000       1.49900000
O        0.86710000       2.84460000       2.20980000
C        1.23910000       3.25490000       0.88090000
C        1.24680000       2.11130000      -0.08220000
O        2.09620000       1.94520000      -0.92090000
H       -1.40650000       2.34640000      -0.89740000
H       -2.09890000       1.16170000       0.21570000
H       -2.07930000       3.78690000       0.82860000
H       -1.77910000       2.61070000       2.09730000
H       -0.09910000       4.68770000       1.86860000
H        2.07020000       3.95360000       0.81180000
