19
Properties=species:S:1:pos:R:3 gdb_128760=T pbc="F F F"
C        0.09360000       1.33390000       0.11810000
O       -0.00970000      -0.06770000       0.22590000
C       -1.28420000      -0.55680000      -0.14120000
C       -1.25070000      -2.04880000      -0.08130000
C       -2.25090000      -3.00140000       0.02510000
C       -3.72910000      -2.78330000       0.13780000
C       -1.54880000      -4.22920000      -0.01090000
N       -0.23370000      -4.06350000      -0.12360000
N       -0.08190000      -2.72870000      -0.17820000
H        1.10850000       1.60880000       0.41350000
H       -0.08530000       1.67710000      -0.91280000
H       -0.62140000       1.84490000       0.78080000
H       -2.06780000      -0.16720000       0.53040000
H       -1.54060000      -0.20840000      -1.15810000
H       -4.20220000      -2.60910000      -0.83670000
H       -4.21750000      -3.65600000       0.58130000
H       -3.96620000      -1.91950000       0.76910000
H       -1.96050000      -5.22700000       0.05020000
H        0.83590000      -2.31730000      -0.20080000
