20
Properties=species:S:1:pos:R:3 gdb_95984=T pbc="F F F"
C       -0.51980000       1.43970000      -0.19710000
C        0.00610000       0.01460000      -0.06960000
N        1.18510000      -0.24010000      -0.92040000
H        0.99410000      -0.11730000      -1.90890000
H        2.23970000       0.79930000       0.17500000
C        1.62660000      -1.60530000      -0.58430000
C        1.36690000      -1.70540000       0.94460000
C        0.57370000      -0.41110000       1.30490000
C        1.50380000       0.64030000       1.92110000
O        2.42130000       1.15530000       1.08040000
O        1.45080000       0.96730000       3.07720000
H        0.25480000       2.17650000       0.02910000
H       -0.88580000       1.62730000      -1.21230000
H       -1.35660000       1.59650000       0.48960000
H       -0.81340000      -0.68460000      -0.31430000
H        1.04320000      -2.36830000      -1.11950000
H        2.67820000      -1.74160000      -0.85000000
H        0.77170000      -2.59080000       1.17730000
H        2.29500000      -1.78120000       1.51430000
H       -0.21130000      -0.60140000       2.03610000
