16
Properties=species:S:1:pos:R:3 gdb_94766=T pbc="F F F"
O        0.04600000       1.41010000      -0.07150000
C        0.05160000      -0.00060000      -0.05270000
C        0.73970000      -0.62510000       1.19080000
C        0.06230000      -1.99300000       1.41990000
C       -1.33260000      -1.79670000       0.83850000
O       -1.96010000      -0.56840000       1.24320000
C       -1.33780000      -0.62080000      -0.05030000
C       -2.21120000      -2.92680000       0.65600000
N       -2.88140000      -3.85840000       0.51950000
H       -0.45490000       1.70690000       0.69780000
H        0.56330000      -0.30200000      -0.97420000
H        1.82000000      -0.70660000       1.06110000
H        0.55870000       0.02950000       2.04730000
H        0.56170000      -2.79380000       0.86420000
H        0.03090000      -2.28950000       2.47160000
H       -2.00930000      -0.52200000      -0.89830000
