17
Properties=species:S:1:pos:R:3 gdb_50154=T pbc="F F F"
O       -0.07860000      -0.02030000      -0.00130000
C       -0.00240000       1.18990000      -0.00300000
N        1.16530000       1.89630000      -0.00580000
C        1.27540000       3.36180000      -0.00220000
C        2.79840000       3.60650000      -0.04310000
C        3.37720000       4.78200000      -0.74750000
N        3.42410000       4.69840000       0.72350000
C        3.40740000       2.24850000      -0.01020000
C        2.44630000       1.32280000       0.00450000
H       -0.88640000       1.85700000      -0.00450000
H        0.75910000       3.79320000      -0.86560000
H        0.83010000       3.77890000       0.90970000
H        4.34150000       4.70250000      -1.24260000
H        2.68650000       5.48130000      -1.21450000
H        2.70830000       5.29520000       1.13300000
H        4.47160000       2.06930000       0.00240000
H        2.50750000       0.24550000       0.02090000
