16
Properties=species:S:1:pos:R:3 gdb_13951=T pbc="F F F"
C       -0.04030000      -1.19440000      -0.29110000
C       -0.05190000      -0.00550000      -0.11960000
C       -0.04280000       1.43810000       0.10510000
C        1.34940000       2.00040000       0.21320000
C        2.41690000       1.72130000       1.28650000
C        2.98550000       3.16170000       1.02500000
C        1.89030000       3.34920000      -0.03350000
O        2.05440000       2.29620000      -0.99710000
H       -0.03580000      -2.24380000      -0.45260000
H       -0.56050000       1.95070000      -0.71410000
H       -0.59550000       1.66730000       1.02580000
H        2.00280000       1.61060000       2.29160000
H        3.07510000       0.87860000       1.06690000
H        2.87140000       3.82150000       1.88830000
H        4.00750000       3.22810000       0.64520000
H        1.41030000       4.25880000      -0.37770000
