19
Properties=species:S:1:pos:R:3 gdb_16888=T pbc="F F F"
C        0.04980000       1.52960000       0.00480000
C       -0.03030000       0.02960000      -0.01650000
C       -0.01620000      -0.67850000      -1.15090000
C       -0.06400000      -2.16050000      -1.15570000
N        0.93460000      -2.87410000      -0.30200000
C       -0.48110000      -2.86050000       0.08980000
C       -0.85410000      -2.00880000       1.28320000
C       -0.08250000      -0.67440000       1.32320000
H        0.92670000       1.87060000       0.57110000
H        0.11580000       1.94770000      -1.00360000
H       -0.82650000       1.96660000       0.50160000
H        0.03860000      -0.17330000      -2.11190000
H       -0.31130000      -2.62900000      -2.10450000
H        1.16410000      -3.76830000      -0.72930000
H       -1.04750000      -3.78340000      -0.02140000
H       -1.93170000      -1.80700000       1.22480000
H       -0.68560000      -2.56000000       2.21560000
H        0.94400000      -0.86560000       1.65880000
H       -0.53370000      -0.01660000       2.07560000
