19
Properties=species:S:1:pos:R:3 gdb_83707=T pbc="F F F"
C       -0.43740000       1.51710000       0.09020000
C        0.02550000       0.06670000      -0.03550000
C        0.74730000      -0.36370000      -1.30870000
C        1.94170000       0.49740000      -1.83390000
C        2.88180000      -0.73020000      -1.65560000
C        1.77820000      -1.42850000      -0.83670000
O        1.93600000      -1.21140000       0.57370000
C        1.01570000      -0.33410000       1.06580000
O        1.02310000       0.02270000       2.20820000
H        0.37480000       2.21880000      -0.12050000
H       -1.25690000       1.72780000      -0.60260000
H       -0.78200000       1.70470000       1.11010000
H       -0.84470000      -0.58960000       0.11080000
H        0.07840000      -0.69600000      -2.10320000
H        1.83940000       0.89030000      -2.84680000
H        2.19620000       1.32770000      -1.17090000
H        3.07490000      -1.25380000      -2.59550000
H        3.82730000      -0.57410000      -1.13320000
H        1.59520000      -2.49300000      -0.99930000
