19
Properties=species:S:1:pos:R:3 gdb_39102=T pbc="F F F"
C       -0.08960000       1.57910000       0.19270000
C        1.42080000       1.37410000       0.00390000
O        1.78350000       0.60570000       1.17790000
C        0.72110000      -0.39050000       1.24900000
C       -0.06240000       0.01750000       0.01270000
C       -1.13760000      -0.66670000      -0.78490000
O       -1.01700000      -0.08160000      -2.08680000
C        0.32460000       0.40260000      -2.31630000
C        1.10610000       0.24460000      -1.00830000
H       -0.41520000       1.97580000       1.15670000
H       -0.59240000       2.08730000      -0.62870000
H        2.15470000       2.16610000      -0.13840000
H        1.14750000      -1.39830000       1.18970000
H        0.17740000      -0.28330000       2.19440000
H       -0.97570000      -1.75650000      -0.82130000
H       -2.15850000      -0.47930000      -0.43740000
H        0.78960000      -0.18970000      -3.11330000
H        0.24840000       1.43670000      -2.67120000
H        1.87360000      -0.53130000      -1.06280000
