14
Properties=species:S:1:pos:R:3 gdb_42245=T pbc="F F F"
N        0.23390000       1.28260000      -0.28400000
C        0.21930000       0.04560000       0.01260000
C       -0.96960000      -0.73980000      -0.17470000
C       -1.93930000      -1.43310000      -0.32960000
N        1.26860000      -0.68300000       0.62800000
C        1.78490000      -1.92410000       0.10050000
C        2.64500000      -0.68540000       0.14630000
C        3.00120000      -0.03480000      -1.09340000
N        3.31550000       0.49910000      -2.06950000
H        1.14790000       1.70080000      -0.10200000
H       -2.81250000      -2.02130000      -0.47310000
H        1.96610000      -2.71480000       0.82240000
H        1.44260000      -2.24610000      -0.87930000
H        3.39930000      -0.59100000       0.92280000
