10
Properties=species:S:1:pos:R:3 gdb_2607=T pbc="F F F"
C        0.01330000      -3.78420000      -0.01840000
C        0.01940000      -2.57750000      -0.01200000
C        0.02400000      -1.21680000      -0.00470000
C        0.02970000      -0.00900000       0.00170000
C        0.01500000       1.44880000       0.00970000
C        1.35980000       2.04090000       0.00000000
N        2.40910000       2.52200000      -0.00740000
H        0.01170000      -4.84630000      -0.02410000
H       -0.53530000       1.82890000      -0.86120000
H       -0.51850000       1.81950000       0.89500000
