19
Properties=species:S:1:pos:R:3 gdb_79710=T pbc="F F F"
C       -0.14470000       1.52410000      -0.06980000
N        0.04290000       0.07310000      -0.05380000
C        0.92750000      -0.68600000      -0.97470000
C        2.37970000      -0.36440000      -0.55800000
N        2.52540000       0.89360000       0.20860000
C        2.22450000      -0.36820000       0.92190000
C        0.71760000      -0.69110000       1.02670000
C        0.63710000      -1.89260000       0.00350000
O       -0.59830000      -2.51350000      -0.12770000
H        0.40180000       1.99110000      -0.89240000
H       -1.21290000       1.75280000      -0.18130000
H        0.21880000       1.98660000       0.85070000
H        0.66300000      -0.71450000      -2.03240000
H        3.22810000      -0.79520000      -1.07670000
H        3.52000000       1.08390000       0.31340000
H        2.94710000      -0.80210000       1.60310000
H        0.23950000      -0.72480000       2.00630000
H        1.40390000      -2.66590000       0.08190000
H       -1.23000000      -1.78180000      -0.19200000
