19
Properties=species:S:1:pos:R:3 gdb_95853=T pbc="F F F"
C        0.01680000       1.54380000       0.05730000
C        0.01390000       0.02870000      -0.04760000
C        0.74880000      -0.50230000      -1.28510000
N        0.90770000      -1.95890000      -1.28550000
C        1.48940000      -2.42610000      -0.03670000
C        0.75470000      -1.87360000       1.20670000
O        0.64980000      -0.46520000       1.14650000
C       -0.57640000      -2.51180000       1.34560000
N       -1.61090000      -3.02200000       1.42230000
H        1.04230000       1.92500000       0.08620000
H       -0.49520000       1.98540000      -0.80280000
H       -0.49460000       1.86430000       0.96840000
H       -1.02380000      -0.34230000      -0.06550000
H        0.21800000      -0.20200000      -2.19440000
H        1.74970000      -0.05120000      -1.32150000
H        0.00740000      -2.40660000      -1.43310000
H        1.50270000      -3.51980000      -0.01770000
H        2.52530000      -2.07100000       0.02220000
H        1.32710000      -2.09340000       2.11470000
