20
Properties=species:S:1:pos:R:3 gdb_92050=T pbc="F F F"
C       -0.06630000       1.56060000       0.00700000
C        0.03240000       0.03580000      -0.00480000
C        0.75360000      -0.51810000      -1.25220000
C        0.76660000      -2.04060000      -1.23020000
C        2.02900000      -2.81880000      -0.94440000
C        0.96050000      -2.67990000       0.11890000
N        1.15940000      -1.77610000       1.20740000
C        0.72870000      -0.47460000       1.26310000
O        0.91880000       0.21500000       2.24790000
H        0.92760000       2.01670000      -0.03990000
H       -0.64660000       1.91320000      -0.85150000
H       -0.54140000       1.91020000       0.92500000
H       -0.98290000      -0.38750000       0.00510000
H        0.25880000      -0.15550000      -2.15900000
H        1.77470000      -0.11970000      -1.27810000
H        0.03870000      -2.52270000      -1.87430000
H        2.15910000      -3.78770000      -1.41380000
H        2.94310000      -2.25280000      -0.79890000
H        0.37100000      -3.56190000       0.35770000
H        1.66390000      -2.08710000       2.02580000
