16
Properties=species:S:1:pos:R:3 gdb_7916=T pbc="F F F"
C       -0.03770000       1.53260000      -0.00530000
C        0.03640000       0.00650000       0.02310000
O        0.78320000      -0.46170000      -1.10060000
C        1.84510000      -1.24490000      -0.67160000
N        2.67350000      -1.80010000      -1.45400000
C        1.81510000      -1.29080000       0.78190000
C        0.76570000      -0.57150000       1.21860000
N        0.27990000      -0.38300000       2.48660000
H        0.96250000       1.96530000       0.08410000
H       -0.47970000       1.86360000      -0.94820000
H       -0.66370000       1.91430000       0.80900000
H       -0.97900000      -0.41210000      -0.03800000
H        2.43940000      -1.58740000      -2.42430000
H        2.54230000      -1.83590000       1.36390000
H        0.90210000      -0.60790000       3.24790000
H       -0.26180000       0.45150000       2.65030000
