19
Properties=species:S:1:pos:R:3 gdb_93335=T pbc="F F F"
C        0.49150000       1.56410000      -0.09470000
C        0.03000000       0.11620000       0.10530000
C        0.34710000      -0.79830000      -1.09910000
C        1.70670000      -1.41250000      -0.75030000
C        1.74320000      -1.42680000       0.77900000
O        2.48760000      -2.06470000       1.47380000
N        0.73960000      -0.54300000       1.21460000
C        0.40220000      -0.24070000       2.53040000
N        1.01990000      -0.67070000       3.55150000
H        1.55410000       1.60710000      -0.35470000
H       -0.08000000       2.03610000      -0.90020000
H        0.34540000       2.15450000       0.81490000
H       -1.04420000       0.11260000       0.32150000
H       -0.41030000      -1.58410000      -1.17400000
H        0.34370000      -0.24160000      -2.03860000
H        1.86090000      -2.42190000      -1.13450000
H        2.54440000      -0.80020000      -1.10350000
H       -0.47920000       0.41430000       2.56110000
H        0.56250000      -0.32370000       4.39360000
