20
Properties=species:S:1:pos:R:3 gdb_122050=T pbc="F F F"
C        0.02450000       1.56300000       0.01030000
C       -0.01400000       0.03270000       0.00230000
C       -1.43960000      -0.52850000       0.01300000
C       -1.47070000      -2.05990000       0.00490000
N       -2.82890000      -2.61620000       0.01500000
C       -3.46040000      -2.84640000      -1.21480000
O       -4.57710000      -3.24780000      -1.38380000
C       -3.43670000      -2.85970000       1.25400000
O       -4.55030000      -3.26210000       1.44010000
H        1.05380000       1.93330000       0.00240000
H       -0.48570000       1.97680000      -0.86620000
H       -0.46860000       1.96710000       0.90110000
H        0.51750000      -0.34330000      -0.88200000
H        0.53440000      -0.35290000       0.87200000
H       -1.97840000      -0.16480000       0.89780000
H       -1.99530000      -0.15520000      -0.85720000
H       -0.95200000      -2.44610000      -0.87860000
H       -0.93510000      -2.45570000       0.87400000
H       -2.76870000      -2.61130000      -2.04940000
H       -2.72940000      -2.63250000       2.07770000
