20
Properties=species:S:1:pos:R:3 gdb_106182=T pbc="F F F"
O        0.03190000       1.35550000      -0.31950000
C        0.00550000       0.01340000       0.15300000
C       -1.38640000      -0.53360000       0.18640000
C       -1.97470000      -1.89110000      -0.03250000
C       -2.96980000      -1.68910000       1.11840000
C       -2.57490000      -0.17610000       1.13040000
C       -3.52100000       0.62800000       0.23680000
C       -3.37670000      -0.11550000      -1.11600000
N       -2.08360000      -0.84090000      -1.06330000
H       -0.31630000       1.33240000      -1.21790000
H        0.63750000      -0.64350000      -0.46300000
H        0.43400000       0.04140000       1.16050000
H       -1.50300000      -2.82370000      -0.32570000
H       -4.02310000      -1.93350000       0.94060000
H       -2.63260000      -2.21000000       2.01790000
H       -2.35560000       0.26420000       2.10260000
H       -4.55200000       0.63640000       0.60440000
H       -3.17840000       1.66480000       0.15390000
H       -4.19020000      -0.82670000      -1.28940000
H       -3.35680000       0.56920000      -1.96860000
