15
Properties=species:S:1:pos:R:3 gdb_46747=T pbc="F F F"
O       -0.03660000       0.07380000       0.35430000
C       -0.04800000       1.24440000       0.08500000
C       -1.29910000       2.08850000      -0.19320000
O       -0.87620000       3.33960000      -0.72210000
C        0.50270000       3.53060000      -0.48390000
C        0.93490000       4.14770000       0.87180000
O        0.38370000       3.32800000       1.90990000
C        1.57970000       2.88150000       1.26560000
C        1.14640000       2.18480000      -0.04780000
H       -1.95320000       1.59130000      -0.91790000
H       -1.84740000       2.21320000       0.75000000
H        0.95400000       4.03050000      -1.34430000
H        1.16460000       5.17650000       1.12290000
H        2.44260000       2.67600000       1.88590000
H        1.95130000       1.78130000      -0.66110000
