19
Properties=species:S:1:pos:R:3 gdb_79423=T pbc="F F F"
C       -0.15990000       1.59280000      -0.02030000
C       -0.03780000       0.07630000      -0.00120000
C        1.18170000      -0.59540000      -0.67110000
C        2.13230000      -0.29580000       0.54310000
C        2.60140000      -1.76010000       0.65010000
C        1.11660000      -1.86550000       0.27490000
C        0.29410000      -3.07850000       0.05820000
O        0.71520000      -4.20660000       0.15550000
C        0.72080000      -0.60940000       1.15700000
H        0.78900000       2.08120000       0.22270000
H       -0.47480000       1.94750000      -1.00780000
H       -0.90660000       1.93430000       0.70490000
H       -1.00050000      -0.38710000      -0.24750000
H        1.46920000      -0.62230000      -1.72430000
H        2.71230000       0.61390000       0.69640000
H        3.31920000      -2.10580000      -0.09900000
H        2.87950000      -2.11920000       1.64490000
H       -0.77080000      -2.88700000      -0.20870000
H        0.47460000      -0.65270000       2.22010000
