14
Properties=species:S:1:pos:R:3 gdb_28919=T pbc="F F F"
N       -0.01860000       1.47340000      -0.15500000
C        0.00060000       0.08310000      -0.08440000
C       -1.15720000      -0.69820000      -0.06610000
O       -2.34610000      -0.05550000      -0.04560000
N       -1.15680000      -2.02720000      -0.06050000
C        0.03710000      -2.61540000      -0.06880000
N        1.21470000      -1.99520000      -0.07420000
C        1.17920000      -0.66660000      -0.07960000
O        2.35040000       0.00790000      -0.07270000
H        0.81820000       1.90780000       0.20740000
H       -0.86250000       1.88510000       0.21720000
H       -3.02390000      -0.74490000      -0.02200000
H        0.05180000      -3.70110000      -0.06740000
H        3.04680000      -0.66300000      -0.05700000
