13
Properties=species:S:1:pos:R:3 gdb_27450=T pbc="F F F"
N        0.01770000       1.23640000      -0.37420000
C       -0.04970000      -0.04180000       0.06510000
N       -1.21910000      -0.60060000       0.20310000
C       -1.39560000      -1.94800000       0.38560000
O       -2.25960000      -2.46220000       1.06170000
C       -0.49170000      -2.81040000      -0.46310000
N        0.78730000      -2.76310000      -0.43970000
C        1.47300000      -1.79850000       0.26570000
N        1.19650000      -0.55160000       0.42370000
H        0.87860000       1.73970000      -0.24750000
H       -0.84210000       1.74820000      -0.47840000
H       -0.97090000      -3.55380000      -1.10350000
H        2.43600000      -2.13960000       0.64480000
