21
Properties=species:S:1:pos:R:3 gdb_36964=T pbc="F F F"
C        0.11280000       1.43470000       0.00930000
C        0.09140000      -0.08450000      -0.20150000
C       -1.31030000      -0.62080000      -0.35840000
C       -1.72370000      -1.92440000       0.17370000
O       -2.09350000      -0.71410000       0.83700000
C        1.52730000       1.99720000       0.19830000
C        1.52830000       3.49550000       0.37700000
C        2.58550000       4.35700000      -0.16460000
O        1.30960000       4.27740000      -0.80270000
H       -0.35310000       1.93470000      -0.84890000
H       -0.50270000       1.67730000       0.88440000
H        0.67380000      -0.34560000      -1.09580000
H        0.56830000      -0.58710000       0.64890000
H       -1.86650000      -0.22740000      -1.21230000
H       -2.54090000      -2.47100000      -0.29530000
H       -0.99680000      -2.54210000       0.70050000
H        1.99890000       1.53430000       1.07600000
H        2.14930000       1.74510000      -0.66940000
H        0.97940000       3.86080000       1.24800000
H        2.81230000       5.30900000       0.31380000
H        3.41180000       3.90820000      -0.71520000
