18
Properties=species:S:1:pos:R:3 gdb_50709=T pbc="F F F"
O       -0.08320000      -0.01840000      -0.15910000
C        0.00500000       1.19100000      -0.10960000
N        1.17220000       1.88130000       0.02830000
C        2.43340000       1.14210000       0.10910000
C        3.47300000       1.97040000       0.84800000
O        3.66110000       3.22270000       0.19650000
C        2.50750000       4.00940000       0.22060000
C        1.74220000       4.15440000      -1.07040000
C        1.18000000       3.31730000       0.06600000
H       -0.87230000       1.86560000      -0.15730000
H        2.23330000       0.19550000       0.61670000
H        2.80450000       0.90620000      -0.89700000
H        3.17620000       2.12040000       1.89650000
H        4.44120000       1.46450000       0.82900000
H        2.57210000       4.85800000       0.89930000
H        1.25980000       5.09940000      -1.29370000
H        2.15540000       3.62840000      -1.92350000
H        0.33950000       3.73190000       0.61290000
