24
Properties=species:S:1:pos:R:3 gdb_8949=T pbc="F F F"
C       -0.20760000       1.54430000       0.03190000
C        0.05660000       0.03540000       0.01530000
C        0.80410000      -0.47240000      -1.23490000
C        2.27060000      -0.01400000      -1.23850000
C        0.66880000      -2.00850000      -1.35310000
O       -0.70690000      -2.39980000      -1.34720000
C        1.39010000      -2.61440000      -2.56570000
C        1.23030000      -4.13460000      -2.65990000
H        0.71660000       2.13100000       0.02960000
H       -0.79570000       1.85160000      -0.84070000
H       -0.77110000       1.83030000       0.92580000
H        0.63190000      -0.24710000       0.90820000
H       -0.89540000      -0.49860000       0.08260000
H        0.30920000      -0.04210000      -2.12210000
H        2.83830000      -0.52050000      -0.44830000
H        2.76810000      -0.21580000      -2.19050000
H        2.34600000       1.06170000      -1.05700000
H        1.07810000      -2.46210000      -0.43900000
H       -1.11390000      -2.02850000      -2.13860000
H        1.00090000      -2.13910000      -3.47920000
H        2.45440000      -2.36210000      -2.52120000
H        1.67600000      -4.62930000      -1.78970000
H        0.17470000      -4.41450000      -2.69120000
H        1.72160000      -4.52780000      -3.55510000
