18
Properties=species:S:1:pos:R:3 gdb_40059=T pbc="F F F"
C        0.05970000       1.52720000      -0.02620000
N        1.27650000       0.68930000       0.03940000
C       -0.04320000       0.05680000       0.02810000
C       -0.47810000      -0.80990000       1.22170000
C       -1.15390000      -1.97800000       0.46580000
C       -2.46280000      -1.47720000      -0.17390000
O       -1.96630000      -0.63820000      -1.23260000
C       -0.54770000      -0.77280000      -1.15200000
O       -0.33420000      -2.09920000      -0.71570000
H       -0.13250000       2.12140000       0.86310000
H       -0.18970000       2.02340000      -0.96160000
H        1.71450000       0.62890000      -0.87780000
H        0.39740000      -1.15170000       1.77770000
H       -1.15820000      -0.29960000       1.90860000
H       -1.20930000      -2.93140000       0.98760000
H       -3.05590000      -2.29370000      -0.60050000
H       -3.08470000      -0.89380000       0.51320000
H       -0.09910000      -0.58830000      -2.12940000
