18
Properties=species:S:1:pos:R:3 gdb_37383=T pbc="F F F"
C       -0.00810000       1.58280000       0.03630000
C        1.48140000       1.89610000       0.00870000
C        2.13980000       0.65250000       0.53080000
O        1.15790000      -0.32510000       0.78720000
C        0.02980000       0.04610000      -0.03890000
C        0.36380000      -0.42900000      -1.45050000
N        0.37520000       0.58340000      -2.52680000
C        1.65160000       0.13560000      -1.92360000
C        2.32390000       1.03650000      -0.93220000
H       -0.43760000       1.90800000       0.98950000
H       -0.56980000       2.01590000      -0.79010000
H        1.83180000       2.88820000       0.26550000
H        2.96150000       0.61380000       1.23420000
H       -0.84830000      -0.44880000       0.37880000
H        0.10380000      -1.45360000      -1.69790000
H        0.24670000       0.11710000      -3.42110000
H        2.30570000      -0.48730000      -2.52800000
H        3.28910000       1.44650000      -1.21020000
