22
Properties=species:S:1:pos:R:3 gdb_101790=T pbc="F F F"
C       -0.56840000       1.34610000       0.63210000
C       -0.71790000      -0.17310000       0.52630000
C       -1.44690000      -0.61690000      -0.74490000
O       -0.77130000      -0.20140000      -1.92830000
C       -1.67050000      -2.12780000      -0.80690000
O       -2.51730000      -2.49640000       0.28710000
C       -2.79240000      -3.81000000       0.43040000
C       -3.70030000      -4.02130000       1.61530000
N       -2.31030000      -4.67230000      -0.36690000
H        0.00560000       1.62760000       1.51990000
H       -0.06010000       1.74750000      -0.24880000
H       -1.54760000       1.83280000       0.69930000
H        0.27350000      -0.65150000       0.54100000
H       -1.26090000      -0.56900000       1.39110000
H       -2.42440000      -0.12120000      -0.79110000
H        0.11810000      -0.57280000      -1.90360000
H       -2.14140000      -2.40490000      -1.75460000
H       -0.72110000      -2.67410000      -0.73710000
H       -3.93330000      -5.07900000       1.74630000
H       -3.22600000      -3.64310000       2.52620000
H       -4.63150000      -3.46280000       1.48050000
H       -2.61920000      -5.60720000      -0.11110000
