18
Properties=species:S:1:pos:R:3 gdb_126955=T pbc="F F F"
C       -0.07420000       1.54280000      -0.00210000
C       -0.05120000       0.02880000       0.18380000
N       -1.33660000      -0.54960000      -0.18420000
C       -1.51730000      -1.92090000      -0.07370000
N       -2.71990000      -2.41310000       0.20640000
N       -2.53780000      -3.77180000       0.15880000
C       -1.26660000      -4.10830000      -0.11990000
O       -0.93830000      -5.41730000      -0.18630000
C       -0.54710000      -2.94140000      -0.28280000
H        0.89880000       1.97680000       0.24480000
H       -0.32140000       1.80210000      -1.03560000
H       -0.82070000       2.00820000       0.65190000
H        0.71810000      -0.40410000      -0.46630000
H        0.23750000      -0.21800000       1.22000000
H       -2.12690000      -0.05240000       0.20760000
H       -3.30630000      -4.39110000       0.34360000
H       -0.00450000      -5.48820000      -0.40620000
H        0.49810000      -2.84590000      -0.52400000
