22
Properties=species:S:1:pos:R:3 gdb_92908=T pbc="F F F"
C       -0.08010000       1.52960000      -0.10270000
C        0.03290000       0.02230000       0.05400000
O        0.59750000      -0.48070000      -1.17950000
C        1.05740000      -1.75360000      -1.13890000
N        1.17130000      -2.53270000      -0.15080000
C        0.80710000      -2.03060000       1.18110000
C        1.66720000      -2.74390000       2.22580000
C        0.85210000      -0.48370000       1.25410000
C        2.27540000       0.09080000       1.29550000
H        0.89720000       1.98670000      -0.27410000
H       -0.72070000       1.77170000      -0.95510000
H       -0.52090000       1.96970000       0.79710000
H       -0.97830000      -0.40100000       0.13430000
H        1.35730000      -2.06980000      -2.13720000
H       -0.23490000      -2.33250000       1.36300000
H        2.73210000      -2.56930000       2.05090000
H        1.41910000      -2.40670000       3.23810000
H        1.49690000      -3.82190000       2.16520000
H        0.32260000      -0.16730000       2.16230000
H        2.85500000      -0.19810000       0.41390000
H        2.26030000       1.18280000       1.34350000
H        2.81200000      -0.26430000       2.17840000
