21
Properties=species:S:1:pos:R:3 gdb_107279=T pbc="F F F"
C        0.07740000       1.51660000       0.22570000
C        0.00810000       0.02550000      -0.13310000
C       -1.39380000      -0.51950000      -0.08480000
C       -2.07870000      -0.96100000       1.17510000
C       -1.92440000      -1.96200000       0.05930000
C       -2.93770000      -1.73660000      -1.08490000
C       -4.31290000      -1.11970000      -0.75580000
O       -3.75460000       0.22230000      -0.77260000
C       -2.45900000      -0.28000000      -1.18840000
H        1.10330000       1.89200000       0.16020000
H       -0.54160000       2.11450000      -0.45170000
H       -0.28560000       1.69150000       1.24340000
H        0.43060000      -0.12970000      -1.13530000
H        0.64040000      -0.55030000       0.55470000
H       -1.41230000      -1.12630000       2.01660000
H       -3.04530000      -0.55150000       1.44760000
H       -1.36220000      -2.87770000       0.20250000
H       -2.86870000      -2.43280000      -1.91900000
H       -5.06220000      -1.24230000      -1.54770000
H       -4.76440000      -1.37270000       0.21060000
H       -2.09850000       0.18740000      -2.10920000
