19
Properties=species:S:1:pos:R:3 gdb_87171=T pbc="F F F"
O       -0.63950000       1.48000000      -0.29960000
C       -0.42490000       0.11110000      -0.45330000
C        0.14450000      -0.72280000       0.67760000
C       -1.31040000      -0.84560000       0.30620000
O       -2.19200000      -0.23640000       1.22470000
C       -1.84870000      -2.11660000      -0.29950000
C       -2.95200000      -1.99170000      -1.38220000
C       -1.93480000      -2.71120000      -2.28910000
O       -0.92980000      -2.70020000      -1.24970000
H       -1.18210000       1.57830000       0.49440000
H       -0.12440000      -0.13830000      -1.46470000
H        0.79890000      -1.54880000       0.42310000
H        0.36130000      -0.21570000       1.61190000
H       -3.00040000      -0.01080000       0.74700000
H       -2.09390000      -2.82460000       0.50490000
H       -3.88190000      -2.52620000      -1.18540000
H       -3.17570000      -0.96480000      -1.68120000
H       -2.20740000      -3.73440000      -2.57440000
H       -1.60440000      -2.16800000      -3.18130000
