15
Properties=species:S:1:pos:R:3 gdb_53987=T pbc="F F F"
C        0.27670000       1.52990000       0.04300000
C       -0.02390000       0.05230000       0.12870000
O       -0.22760000      -0.53350000       1.15900000
C       -0.04500000      -0.70960000      -1.23770000
O       -0.73570000       0.03670000      -2.23960000
C        1.39990000      -0.84970000      -1.78520000
O        2.39150000      -0.67420000      -1.13660000
C       -0.57970000      -2.05850000      -1.10350000
C       -1.02510000      -3.17380000      -1.06110000
H        1.32980000       1.65780000      -0.23170000
H       -0.32470000       2.00730000      -0.73350000
H        0.10000000       1.99070000       1.01510000
H       -1.65240000      -0.25970000      -2.24960000
H        1.40810000      -1.12340000      -2.86040000
H       -1.42210000      -4.15740000      -0.99400000
