19
Properties=species:S:1:pos:R:3 gdb_92156=T pbc="F F F"
O       -0.06530000       1.44110000      -0.05170000
C        0.03700000       0.02010000       0.02840000
C        0.71720000      -0.48610000       1.33660000
C       -0.45390000      -0.89230000       2.23770000
C       -1.44130000       0.30380000       2.46110000
C       -2.26810000      -0.21220000       1.28460000
C       -1.35760000      -0.58000000       0.09590000
C       -1.51310000      -1.51200000       1.26390000
O       -2.00740000      -2.79910000       1.24930000
H        0.82630000       1.79550000      -0.13110000
H        0.57230000      -0.35690000      -0.85590000
H        1.34970000      -1.35560000       1.11830000
H        1.35500000       0.28840000       1.77670000
H       -0.18620000      -1.46720000       3.12430000
H       -1.98640000       0.20720000       3.40380000
H       -1.01970000       1.30800000       2.37480000
H       -3.32060000      -0.03140000       1.10190000
H       -1.89540000      -0.80390000      -0.81840000
H       -1.40390000      -3.35390000       0.74260000
