13
Properties=species:S:1:pos:R:3 gdb_27023=T pbc="F F F"
N        0.15270000       1.37210000       0.17730000
C       -0.02180000       0.01880000       0.05950000
C       -1.13090000      -0.76490000       0.02730000
N       -0.62660000      -2.09510000       0.00910000
C        0.73300000      -2.10220000       0.00330000
O        1.52820000      -2.99720000      -0.02930000
O        1.10450000      -0.74170000       0.04410000
C       -2.48420000      -0.41680000       0.01950000
C       -3.65350000      -0.11630000       0.00420000
H        0.97830000       1.72490000      -0.28800000
H       -0.67730000       1.90880000      -0.03220000
H       -1.17680000      -2.93430000      -0.02860000
H       -4.68140000       0.14940000       0.00430000
