21
Properties=species:S:1:pos:R:3 gdb_88670=T pbc="F F F"
O       -0.02170000       1.47870000       0.25700000
C        0.00260000       0.09030000       0.08290000
C       -0.54410000      -0.80390000       1.16720000
C       -1.32220000      -0.58970000      -0.12080000
C       -2.60390000       0.19700000      -0.11800000
C       -3.19900000       0.66170000      -1.47960000
C       -4.60760000       0.36910000      -0.90090000
O       -5.62930000      -0.12550000      -1.72920000
C       -3.94250000      -0.54880000       0.15860000
H        0.63520000       1.70500000       0.92320000
H        0.84960000      -0.27760000      -0.49650000
H       -0.07200000      -1.76320000       1.34990000
H       -0.92730000      -0.30870000       2.05400000
H       -1.31220000      -1.42240000      -0.82120000
H       -2.50120000       1.05550000       0.54990000
H       -2.97300000       1.66960000      -1.83380000
H       -2.95650000      -0.05450000      -2.27520000
H       -5.02500000       1.26390000      -0.42880000
H       -5.29370000      -0.91060000      -2.17470000
H       -3.89530000      -1.58230000      -0.20710000
H       -4.34490000      -0.55520000       1.17450000
