18
Properties=species:S:1:pos:R:3 gdb_11586=T pbc="F F F"
C       -0.31690000       1.34350000      -0.16640000
C       -0.04780000      -0.11820000       0.08590000
N        0.10790000      -0.71970000       1.19380000
O        0.01550000      -0.78530000      -1.08510000
C        0.28130000      -2.19420000      -1.00770000
C        0.32070000      -2.73010000      -2.40890000
C       -0.12860000      -4.12220000      -2.66010000
N       -0.92670000      -2.98520000      -3.14480000
H        0.48050000       1.77220000      -0.78110000
H       -1.25160000       1.46380000      -0.72220000
H       -0.38330000       1.89710000       0.77140000
H        0.02860000      -0.06600000       1.96920000
H        1.23080000      -2.35320000      -0.48450000
H       -0.50160000      -2.68090000      -0.41350000
H        1.11210000      -2.31780000      -3.03110000
H        0.34850000      -4.71360000      -3.43590000
H       -0.49510000      -4.69900000      -1.81430000
H       -1.72340000      -2.83240000      -2.53020000
