17
Properties=species:S:1:pos:R:3 gdb_41313=T pbc="F F F"
C        0.08110000       1.49920000      -0.28270000
O        1.45640000       1.55050000       0.23640000
C        1.26170000       0.25730000       0.82310000
C        0.50670000       0.08230000       2.16420000
C       -0.37910000      -0.87540000       1.31290000
C        0.65820000      -2.00050000       1.00690000
C        1.59020000      -1.11000000       0.13700000
O        0.68690000      -0.79470000      -0.96200000
C       -0.00430000      -0.00230000       0.03530000
H       -0.58830000       2.15090000       0.28900000
H        0.03900000       1.74390000      -1.34650000
H        1.01670000      -0.33640000       3.03440000
H        0.01050000       1.01520000       2.43790000
H       -1.38520000      -1.17380000       1.60060000
H        1.11190000      -2.39770000       1.91840000
H        0.26550000      -2.81540000       0.39670000
H        2.56830000      -1.48270000      -0.16760000
