15
Properties=species:S:1:pos:R:3 gdb_18951=T pbc="F F F"
O       -0.69410000       0.89170000       0.56670000
C        0.14520000       0.97810000      -0.29660000
C        1.31710000       1.91330000      -0.24900000
C        1.06650000       3.39040000      -0.64940000
C        0.41460000       3.77690000       0.71160000
C        1.42200000       4.91320000       0.84100000
N        2.29420000       3.84910000       0.17670000
C        1.55710000       2.75820000       1.00640000
H        0.07860000       0.35800000      -1.21980000
H        2.20980000       1.48290000      -0.71600000
H        0.87270000       3.80680000      -1.63930000
H       -0.63510000       3.70780000       1.00300000
H        1.28190000       5.80720000       0.22450000
H        1.76370000       5.18810000       1.84410000
H        1.93920000       2.44800000       1.97940000
