23
Properties=species:S:1:pos:R:3 gdb_103991=T pbc="F F F"
C       -0.05520000       1.48240000       0.15140000
C       -0.12010000      -0.02990000      -0.09690000
C        0.72340000      -0.53150000      -1.27720000
C        0.25730000       0.05830000      -2.61070000
C        2.29280000      -0.44600000      -1.14070000
C        2.39310000      -1.95850000      -1.37160000
C        1.64980000      -2.68050000      -0.26920000
C        0.87980000      -2.06800000      -1.40630000
O        0.11700000      -2.84280000      -2.26820000
H        0.97800000       1.81690000       0.29580000
H       -0.47480000       2.05340000      -0.68210000
H       -0.61830000       1.75280000       1.05030000
H        0.19760000      -0.54750000       0.81590000
H       -1.16580000      -0.32490000      -0.26350000
H        0.38660000       1.14470000      -2.62980000
H        0.82700000      -0.36490000      -3.44340000
H       -0.79930000      -0.16510000      -2.79200000
H        2.74990000       0.15810000      -1.92780000
H        2.66990000      -0.10190000      -0.17150000
H        3.13230000      -2.46290000      -1.98110000
H        1.70710000      -3.76340000      -0.32230000
H        1.62750000      -2.27840000       0.74130000
H       -0.62000000      -3.21270000      -1.77050000
