20
Properties=species:S:1:pos:R:3 gdb_99900=T pbc="F F F"
C        0.74190000      -1.48450000      -0.61300000
C       -0.16110000      -0.81480000       0.42350000
C       -1.57680000      -0.46910000      -0.09810000
O       -1.48860000       0.44990000      -1.19780000
C       -2.29040000      -1.68310000      -0.52290000
C       -2.86410000      -2.67280000      -0.89340000
C       -2.37710000       0.23000000       1.00560000
C       -2.28700000       1.69880000       1.17450000
N       -3.52430000       1.07130000       0.66590000
H        1.72910000      -1.68840000      -0.18860000
H        0.31880000      -2.43360000      -0.95540000
H        0.88350000      -0.83640000      -1.48350000
H       -0.26810000      -1.45790000       1.30470000
H        0.28560000       0.12620000       0.76130000
H       -1.45870000      -0.06260000      -2.01100000
H       -3.38260000      -3.54390000      -1.21140000
H       -2.52360000      -0.39780000       1.88100000
H       -2.36440000       2.13310000       2.16710000
H       -1.67070000       2.24940000       0.47140000
H       -3.53470000       1.18410000      -0.34660000
