17
Properties=species:S:1:pos:R:3 gdb_63719=T pbc="F F F"
C       -0.06540000       1.57190000       0.08380000
C        0.02560000       0.05790000       0.00700000
O       -1.24020000      -0.55160000      -0.15640000
C        1.10910000      -0.56340000      -0.96580000
C        1.71580000      -1.28850000       0.24340000
N        2.11020000      -0.22060000       1.20710000
C        0.71400000      -0.67370000       1.17400000
C        2.31430000      -2.58020000       0.28370000
N        2.80450000      -3.62900000       0.30410000
H        0.91040000       2.00320000       0.31780000
H       -0.40020000       1.98540000      -0.87550000
H       -0.78370000       1.86920000       0.85390000
H       -1.66650000      -0.15550000      -0.92420000
H        0.63420000      -1.24450000      -1.67260000
H        1.79050000       0.12090000      -1.47500000
H        2.56550000      -0.66930000       2.00200000
H        0.22210000      -1.10790000       2.03550000
