12
Properties=species:S:1:pos:R:3 gdb_130901=T pbc="F F F"
O       -0.04170000      -0.03400000      -0.00130000
C        0.01480000       1.17070000       0.00720000
C        1.26230000       1.95430000      -0.00060000
N        2.48400000       1.40540000      -0.01830000
N        3.28090000       2.45140000      -0.01900000
N        2.72120000       3.65400000      -0.00360000
C        1.41040000       3.36820000       0.00870000
C        0.40680000       4.36310000       0.02750000
C       -0.46980000       5.18640000       0.04360000
H       -0.89790000       1.80210000       0.02210000
H        4.28480000       2.34680000      -0.03090000
H       -1.23860000       5.91960000       0.05810000
