18
Properties=species:S:1:pos:R:3 gdb_37867=T pbc="F F F"
C       -0.06650000       1.56430000       0.03250000
C        1.45290000       1.20790000       0.05350000
C        1.20660000       0.02340000       1.00140000
C        2.14390000      -1.10170000       0.60150000
C        1.74870000      -1.12510000      -0.91700000
C        0.47160000      -1.96150000      -1.02700000
C       -0.55930000      -1.26100000      -0.52640000
C        0.04760000       0.03910000      -0.12450000
N        1.17890000       0.24630000      -1.10980000
H       -0.48920000       1.94810000       0.96260000
H       -0.41750000       2.10670000      -0.84660000
H        2.29920000       1.89720000       0.03910000
H        0.95890000       0.18150000       2.05240000
H        3.19840000      -0.84150000       0.74060000
H        1.94800000      -2.04710000       1.11430000
H        2.54990000      -1.37930000      -1.61060000
H        0.45550000      -2.99400000      -1.35360000
H       -1.57340000      -1.59650000      -0.35950000
