20
Properties=species:S:1:pos:R:3 gdb_26411=T pbc="F F F"
C       -0.12000000       1.56570000       0.13110000
C        0.00590000       0.05280000      -0.00120000
C        0.75240000      -0.57660000       1.17680000
O       -1.32970000      -0.45080000      -0.08950000
C       -1.50670000      -1.68350000      -0.63330000
C       -0.58680000      -2.55450000      -1.18560000
N       -1.29550000      -3.65830000      -1.62140000
C       -2.62480000      -3.49890000      -1.35260000
C       -2.79440000      -2.28050000      -0.73720000
H        0.86880000       2.03020000       0.19070000
H       -0.65230000       1.98350000      -0.72730000
H       -0.67730000       1.82060000       1.03810000
H        0.52960000      -0.18250000      -0.94000000
H        0.76940000      -1.66610000       1.09600000
H        1.78580000      -0.21680000       1.21130000
H        0.26180000      -0.31040000       2.11840000
H        0.48110000      -2.49790000      -1.30130000
H       -0.88430000      -4.46420000      -2.05560000
H       -3.34300000      -4.25720000      -1.61980000
H       -3.72130000      -1.84570000      -0.39920000
