16
Properties=species:S:1:pos:R:3 gdb_127727=T pbc="F F F"
C        0.00470000       1.41920000      -0.01760000
N        0.00580000      -0.02720000       0.06370000
N       -0.02630000      -0.76950000      -1.08310000
N       -0.01830000      -2.01300000      -0.74820000
C        0.01950000      -2.11030000       0.61930000
C        0.03810000      -3.38440000       1.33950000
O        0.02370000      -4.47920000       0.83060000
C        0.03480000      -0.82610000       1.15190000
C        0.07450000      -0.30340000       2.54800000
H        0.90860000       1.83490000       0.43700000
H       -0.02300000       1.67940000      -1.07540000
H       -0.87340000       1.83610000       0.48400000
H        0.06720000      -3.27050000       2.44790000
H        0.97170000       0.30120000       2.72250000
H       -0.79490000       0.32810000       2.76260000
H        0.07850000      -1.12430000       3.26620000
