24
Properties=species:S:1:pos:R:3 gdb_100331=T pbc="F F F"
C       -0.11340000       1.51860000       0.17460000
C        0.00920000      -0.00470000       0.05100000
C        0.69410000      -0.54870000      -1.22770000
C        0.70200000      -2.08700000      -1.16460000
C        0.00060000      -0.06100000      -2.52610000
C       -1.48680000      -0.40130000      -2.66850000
C        2.16830000      -0.04770000      -1.31560000
C        2.98630000      -0.39430000      -0.15520000
N        3.62170000      -0.67220000       0.76980000
H        0.86310000       2.01340000       0.18240000
H       -0.70360000       1.95510000      -0.63720000
H       -0.60940000       1.77930000       1.11440000
H        0.55940000      -0.38790000       0.91840000
H       -0.99020000      -0.44940000       0.11440000
H       -0.31260000      -2.48400000      -1.07350000
H        1.15220000      -2.51920000      -2.06550000
H        1.27290000      -2.44080000      -0.30070000
H        0.12320000       1.02580000      -2.60870000
H        0.54390000      -0.48720000      -3.38000000
H       -1.66580000      -1.48010000      -2.64090000
H       -2.08970000       0.05780000      -1.87930000
H       -1.86650000      -0.03210000      -3.62610000
H        2.64430000      -0.47250000      -2.20720000
H        2.19490000       1.04040000      -1.43790000
