15
Properties=species:S:1:pos:R:3 gdb_34267=T pbc="F F F"
N        0.02740000      -1.09190000      -0.07740000
C       -0.00720000       0.06430000      -0.04300000
C       -0.00510000       1.49010000      -0.00880000
O       -1.07970000       2.19370000       0.60650000
C       -0.77820000       3.35370000      -0.24410000
C        0.08030000       4.29830000       0.59030000
N        1.25520000       3.45820000       0.92920000
C        1.25740000       2.36600000      -0.02050000
C        0.21420000       2.52390000      -1.09360000
H       -1.67560000       3.77130000      -0.69770000
H        0.34510000       5.19470000       0.01000000
H       -0.45200000       4.60790000       1.49450000
H        2.11970000       3.98100000       0.86210000
H        2.20070000       1.87310000      -0.21950000
H        0.29840000       2.43330000      -2.16730000
