14
Properties=species:S:1:pos:R:3 gdb_125596=T pbc="F F F"
C       -0.02720000       1.48200000       0.01080000
C        0.00460000      -0.00620000      -0.00360000
N        0.00640000      -0.71280000      -1.08530000
N        0.03970000      -2.02170000      -0.66550000
C        0.06020000      -2.18700000       0.69880000
O        0.09000000      -3.19350000       1.35360000
N        0.03630000      -0.81580000       1.13730000
C        0.04240000      -0.37340000       2.46590000
O        0.06960000      -1.08410000       3.42870000
H        0.85430000       1.90300000       0.50610000
H       -0.04560000       1.82910000      -1.02320000
H       -0.91530000       1.86500000       0.52470000
H        0.04730000      -2.76890000      -1.33760000
H        0.01870000       0.73000000       2.51780000
