22
Properties=species:S:1:pos:R:3 gdb_57466=T pbc="F F F"
C       -0.10130000       1.55480000       0.17730000
C       -0.02730000       0.02170000       0.05530000
C        0.79200000      -0.54130000       1.23220000
C       -1.44770000      -0.57140000       0.07770000
C        0.66450000      -0.41110000      -1.25630000
C        0.16570000       0.11190000      -2.62470000
O        1.47950000       0.69870000      -2.88650000
C        1.95660000       0.27740000      -1.66380000
N        3.07900000       0.44790000      -1.12840000
H        0.89760000       2.00010000       0.17110000
H       -0.68320000       2.00640000      -0.63320000
H       -0.58730000       1.83310000       1.11800000
H        0.34670000      -0.24150000       2.18690000
H        0.81890000      -1.63640000       1.20520000
H        1.82250000      -0.17750000       1.19860000
H       -2.06060000      -0.18470000      -0.74440000
H       -1.42440000      -1.66370000      -0.00410000
H       -1.95550000      -0.31840000       1.01440000
H        0.78020000      -1.49980000      -1.25360000
H       -0.08060000      -0.64280000      -3.37510000
H       -0.60420000       0.88630000      -2.60110000
H        3.70070000       0.98910000      -1.73190000
