20
Properties=species:S:1:pos:R:3 gdb_98283=T pbc="F F F"
C        0.66720000       1.33120000       0.80840000
C        0.18850000      -0.06260000       0.37130000
N       -1.13970000       0.02570000      -0.22560000
C       -2.00610000      -1.14370000      -0.08240000
C       -2.26230000       0.09330000       0.70370000
C        1.19380000      -0.63250000      -0.62630000
O        2.24620000      -1.10730000      -0.25170000
C        0.89920000      -0.55690000      -2.11580000
O        1.98240000      -1.02430000      -2.86420000
H        1.67450000       1.26830000       1.22610000
H        0.67420000       2.02070000      -0.04060000
H       -0.00470000       1.73610000       1.57030000
H        0.20980000      -0.73040000       1.25050000
H       -2.61770000      -1.38580000      -0.94640000
H       -1.61690000      -2.00460000       0.45880000
H       -2.04400000       0.05530000       1.76990000
H       -3.06570000       0.76940000       0.42720000
H       -0.01430000      -1.13900000      -2.31510000
H        0.64610000       0.48420000      -2.36990000
H        2.63680000      -1.31130000      -2.20710000
