23
Properties=species:S:1:pos:R:3 gdb_52688=T pbc="F F F"
C        0.11580000       1.45070000       0.04490000
C        0.05180000      -0.00430000       0.03020000
C        0.00120000      -1.20810000       0.02790000
C       -0.06720000      -2.67010000      -0.00640000
C       -1.52730000      -3.16390000       0.03400000
C        0.67910000      -3.22440000      -1.22860000
C        2.21110000      -2.99770000      -1.34480000
C        2.34360000      -4.44100000      -1.90170000
C        0.94130000      -4.75590000      -1.31400000
H        0.70150000       1.81630000       0.89590000
H        0.58230000       1.83950000      -0.86720000
H       -0.88370000       1.89400000       0.11820000
H        0.44370000      -3.05690000       0.88870000
H       -1.56120000      -4.25790000       0.03900000
H       -2.03940000      -2.79830000       0.92800000
H       -2.07870000      -2.80610000      -0.84110000
H        0.17780000      -2.87490000      -2.13860000
H        2.55700000      -2.17030000      -1.96780000
H        2.67190000      -2.90150000      -0.35600000
H        2.33610000      -4.45640000      -2.99540000
H        3.18530000      -5.04470000      -1.55440000
H        1.01440000      -5.20130000      -0.31550000
H        0.25760000      -5.36190000      -1.91340000
