13
Properties=species:S:1:pos:R:3 gdb_44411=T pbc="F F F"
O       -0.12540000       0.04690000      -0.37640000
C       -0.06010000       1.16930000      -0.02650000
O       -1.13190000       2.05190000       0.28760000
C       -0.16500000       2.89570000       1.05250000
C        0.77910000       4.17580000       0.93380000
O        1.87570000       3.15540000       1.09240000
C        0.92540000       2.36510000       0.21010000
C        0.91780000       3.24350000      -1.05700000
C        0.82260000       4.47240000      -0.55230000
H       -0.19170000       2.55220000       2.08570000
H        0.81560000       4.95660000       1.69130000
H        0.98190000       2.88030000      -2.07120000
H        0.78560000       5.44210000      -1.02470000
