23
Properties=species:S:1:pos:R:3 gdb_113836=T pbc="F F F"
C       -0.51940000       0.94650000      -0.03630000
O        0.51810000      -0.00530000       0.10700000
C        0.92490000      -0.54330000      -1.11200000
C        1.63800000      -1.85490000      -1.05550000
C        0.24220000      -1.78340000      -1.65760000
C       -0.91220000      -2.39120000      -0.92430000
C       -2.27560000      -2.50570000      -1.57140000
C       -1.47610000      -3.75250000      -1.27400000
C       -0.91530000      -4.60440000      -2.39170000
H       -0.20190000       1.79460000      -0.66210000
H       -1.41990000       0.50270000      -0.48220000
H       -0.75650000       1.31660000       0.96410000
H        1.26690000       0.20290000      -1.83180000
H        2.49280000      -2.01670000      -1.70280000
H        1.71900000      -2.30810000      -0.07310000
H        0.18860000      -1.84080000      -2.74100000
H       -0.91170000      -2.14910000       0.13420000
H       -3.15930000      -2.28820000      -0.98080000
H       -2.35740000      -2.20810000      -2.61330000
H       -1.82110000      -4.32980000      -0.41930000
H       -0.61050000      -4.00030000      -3.25130000
H       -0.03860000      -5.17200000      -2.06030000
H       -1.66280000      -5.32300000      -2.74620000
