14
Properties=species:S:1:pos:R:3 gdb_1507=T pbc="F F F"
C        0.04760000       1.51750000      -0.11090000
C       -0.00140000       0.00760000       0.01450000
O        0.65150000      -0.54970000      -1.14170000
C        0.70670000      -1.88600000      -1.20850000
N        0.22990000      -2.67160000      -0.33520000
C        1.41740000      -2.32480000      -2.47110000
O        1.58260000      -3.48580000      -2.73890000
H        1.08090000       1.87330000      -0.15160000
H       -0.46830000       1.85200000      -1.01530000
H       -0.44080000       1.97570000       0.75400000
H        0.51140000      -0.35190000       0.91300000
H       -1.02750000      -0.37330000       0.05420000
H        0.41120000      -3.63170000      -0.63700000
H        1.76950000      -1.50000000      -3.12190000
