14
Properties=species:S:1:pos:R:3 gdb_123672=T pbc="F F F"
C       -0.05800000       1.58650000      -0.05340000
C        1.48250000       1.33280000       0.03610000
O        1.16960000       0.18060000       0.89100000
C       -0.01060000       0.02390000       0.00150000
C        0.69130000      -0.29220000      -1.31270000
C        1.72460000       0.61220000      -1.29030000
N        2.38860000       0.37710000      -2.42690000
N        1.78490000      -0.63820000      -3.12700000
N        0.74420000      -1.03810000      -2.43190000
H       -0.44790000       2.02380000       0.86810000
H       -0.46540000       2.06880000      -0.94420000
H        2.20080000       2.03420000       0.45340000
H       -0.80370000      -0.59930000       0.40480000
H        3.21840000       0.79690000      -2.81430000
