17
Properties=species:S:1:pos:R:3 gdb_66024=T pbc="F F F"
C       -0.16830000       1.56960000      -0.02600000
C       -0.05620000       0.04220000      -0.01330000
C        1.18860000      -0.48650000      -0.78460000
O        1.90870000      -0.72680000       0.43880000
C        0.71710000      -0.54320000       1.23570000
C        0.90800000       0.29430000       2.40280000
C        1.04820000       0.98450000       3.37700000
C       -1.32260000      -0.59970000      -0.31060000
C       -2.37120000      -1.13540000      -0.55410000
H        0.79970000       2.02310000       0.20250000
H       -0.49570000       1.91090000      -1.01220000
H       -0.89300000       1.91220000       0.71660000
H        1.00620000      -1.41050000      -1.34540000
H        1.69670000       0.24310000      -1.42400000
H        0.29810000      -1.51250000       1.53630000
H        1.17870000       1.59080000       4.23950000
H       -3.29760000      -1.60800000      -0.77000000
