20
Properties=species:S:1:pos:R:3 gdb_22683=T pbc="F F F"
C       -1.53460000       0.05350000      -0.51020000
C       -0.09960000      -0.28280000      -0.06170000
C        0.80370000      -0.57590000      -1.23500000
C        1.07090000      -2.00570000      -1.64030000
C        1.99850000      -2.72220000      -0.67680000
C        1.51200000      -3.59490000       0.40090000
O        2.05830000      -4.14280000      -0.79880000
N        1.37330000       0.31580000      -1.95410000
O        1.07550000       1.61800000      -1.51580000
H       -1.53410000       0.94000000      -1.14820000
H       -1.98180000      -0.77290000      -1.07220000
H       -2.17060000       0.25210000       0.35750000
H        0.30940000       0.56360000       0.49720000
H       -0.11290000      -1.14880000       0.60690000
H        0.12890000      -2.56510000      -1.69840000
H        1.52510000      -2.00770000      -2.63540000
H        2.97130000      -2.24620000      -0.54350000
H        2.11190000      -3.73840000       1.29850000
H        0.44010000      -3.74080000       0.53280000
H        1.57810000       2.15730000      -2.13500000
