22
Properties=species:S:1:pos:R:3 gdb_119487=T pbc="F F F"
C       -0.00550000       1.65510000      -0.04010000
C        0.01290000       0.12690000       0.04510000
C        0.62950000      -0.52920000      -1.20040000
C        0.65470000      -2.02790000      -1.15470000
N        0.71380000      -2.86210000      -2.38360000
C       -0.38840000      -3.04650000      -1.39760000
C        0.13600000      -3.91740000      -0.22020000
C        1.58580000      -4.28910000      -0.38310000
C        1.22680000      -2.88460000       0.02690000
H        1.00780000       2.05840000      -0.14590000
H       -0.58760000       1.99790000      -0.90300000
H       -0.44810000       2.09880000       0.85700000
H        0.57250000      -0.18180000       0.93620000
H       -1.00800000      -0.25120000       0.17980000
H        0.06470000      -0.21380000      -2.08900000
H        1.65330000      -0.15170000      -1.34020000
H        0.33560000      -2.29540000      -3.14290000
H       -1.42390000      -2.93940000      -1.69630000
H       -0.51800000      -4.38650000       0.50300000
H        1.98360000      -4.89880000       0.42280000
H        1.99670000      -4.48980000      -1.36370000
H        1.53650000      -2.45350000       0.97020000
