18
Properties=species:S:1:pos:R:3 gdb_105354=T pbc="F F F"
C       -0.15370000       1.21490000       0.42590000
O       -0.23910000      -0.15900000       0.09320000
C        0.51680000      -0.52980000      -1.02570000
C        2.08740000      -0.38600000      -1.03200000
C        2.17220000      -1.89700000      -1.25140000
N        1.54700000      -2.50770000      -0.05740000
C        0.69430000      -2.05090000      -1.17870000
C       -0.13180000       0.01820000      -2.29630000
O        0.44460000       0.31400000      -3.31010000
H        0.86960000       1.50280000       0.70190000
H       -0.48620000       1.86700000      -0.39600000
H       -0.80970000       1.37310000       1.28430000
H        2.42270000       0.21150000      -1.88040000
H        2.53010000      -0.03980000      -0.09690000
H        2.88510000      -2.43830000      -1.85910000
H        1.62320000      -3.52070000      -0.15460000
H        0.02350000      -2.73130000      -1.68870000
H       -1.23930000       0.09740000      -2.20240000
