20
Properties=species:S:1:pos:R:3 gdb_109426=T pbc="F F F"
C       -0.06030000       1.53170000      -0.19990000
C       -0.04070000       0.01630000      -0.00010000
C       -1.41030000      -0.60180000      -0.27160000
N        1.05770000      -0.65430000      -0.74540000
C        1.75250000      -1.05400000       0.36040000
O        2.83690000      -1.56290000       0.52830000
C        0.66720000      -0.51390000       1.30540000
C        1.24930000       0.40870000       2.37750000
O        2.09420000      -0.33890000       3.22980000
H        0.92960000       1.97170000      -0.05990000
H       -0.39860000       1.77770000      -1.21270000
H       -0.75320000       2.00640000       0.50220000
H       -1.74140000      -0.38580000      -1.29350000
H       -1.38030000      -1.68740000      -0.14480000
H       -2.15990000      -0.19300000       0.41390000
H        1.32690000      -0.61550000      -1.71890000
H        0.10300000      -1.31460000       1.79150000
H        1.78970000       1.24800000       1.91310000
H        0.45970000       0.83570000       3.00530000
H        2.72000000      -0.80880000       2.65980000
