20
Properties=species:S:1:pos:R:3 gdb_68112=T pbc="F F F"
C       -0.23470000       1.33490000       0.03590000
C        0.06750000      -0.12980000       0.02520000
C        0.55360000      -1.03780000      -1.13310000
C        0.13050000      -1.93290000       0.06280000
C        0.89560000      -0.98300000       1.02170000
O       -1.07400000      -1.07590000       0.23050000
C       -0.08520000      -3.40210000       0.11850000
C       -1.14400000      -3.94420000       1.00490000
N       -1.32350000      -3.95050000      -0.45900000
H        0.68230000       1.91060000      -0.12470000
H       -0.94480000       1.58640000      -0.75760000
H       -0.66650000       1.63180000       0.99630000
H       -0.10660000      -1.07890000      -2.00080000
H        1.61270000      -1.00510000      -1.40190000
H        1.98540000      -0.94420000       0.94770000
H        0.53480000      -0.97670000       2.05140000
H        0.80550000      -3.99600000      -0.07610000
H       -1.01980000      -4.92410000       1.45670000
H       -1.71580000      -3.22910000       1.58820000
H       -1.92360000      -3.16630000      -0.71080000
