18
Properties=species:S:1:pos:R:3 gdb_9351=T pbc="F F F"
C        0.09140000       1.43500000       0.00850000
C       -0.04360000      -0.09050000       0.00160000
C       -1.49850000      -0.52930000       0.01320000
O       -1.52680000      -1.96960000       0.00580000
C       -2.75210000      -2.53300000       0.01410000
O       -3.78570000      -1.92370000       0.02710000
C       -2.60230000      -4.04660000       0.00500000
O       -3.87990000      -4.62800000       0.01560000
H        1.14330000       1.73360000       0.00010000
H       -0.38880000       1.88220000      -0.86860000
H       -0.37200000       1.87280000       0.89920000
H        0.44700000      -0.51000000      -0.88420000
H        0.46380000      -0.51940000       0.87330000
H       -2.02580000      -0.16650000       0.90230000
H       -2.04270000      -0.15720000      -0.86180000
H       -2.01340000      -4.31550000      -0.88630000
H       -1.99480000      -4.32430000       0.88110000
H       -3.76930000      -5.58300000       0.00230000
