18
Properties=species:S:1:pos:R:3 gdb_32826=T pbc="F F F"
N       -0.16720000       0.48250000       1.14830000
H       -0.89570000       0.08760000       2.66910000
H        0.84780000       0.51330000       1.16650000
H       -0.42580000      -0.21640000       0.45660000
C       -0.72030000       1.79950000       0.76360000
C       -2.25230000       1.80250000       0.84890000
C       -2.83480000       1.72140000       2.23430000
C       -2.44700000       0.93840000       3.29350000
O       -1.46980000       0.06090000       3.48630000
O       -3.25200000       1.12150000       4.36120000
C       -4.19990000       2.04720000       3.99580000
C       -3.98700000       2.44050000       2.71910000
H       -0.31180000       2.54260000       1.45600000
H       -0.41180000       2.08700000      -0.25210000
H       -2.60580000       2.72710000       0.37860000
H       -2.62950000       0.98970000       0.20630000
H       -4.92000000       2.29840000       4.75470000
H       -4.57180000       3.15960000       2.16430000
