12
Properties=species:S:1:pos:R:3 gdb_7037=T pbc="F F F"
O       -0.50600000       0.20290000       0.34860000
C       -0.15660000       1.30900000       0.05290000
N        1.15720000       1.75820000      -0.08140000
C        2.32340000       0.96580000      -0.01510000
O        2.33960000      -0.22790000      -0.02150000
N        3.46780000       1.78880000       0.06000000
C        4.79320000       1.37690000      -0.07900000
O        5.17250000       0.28390000      -0.38640000
H       -0.85920000       2.14470000      -0.14220000
H        1.25740000       2.73150000      -0.32950000
H        3.34120000       2.75630000       0.31850000
H        5.47290000       2.22920000       0.12530000
