14
Properties=species:S:1:pos:R:3 gdb_131942=T pbc="F F F"
C        0.00230000       1.44320000       0.02320000
N       -0.00730000      -0.01020000       0.04030000
C       -0.10800000      -0.84100000      -1.04750000
N       -0.08880000      -2.10820000      -0.71390000
C        0.02880000      -2.09090000       0.64060000
C        0.08210000      -0.81330000       1.14280000
N        0.08860000      -3.29440000       1.43650000
O        0.03110000      -4.37060000       0.86580000
O        0.19520000      -3.13090000       2.65210000
H        0.93570000       1.82710000       0.44310000
H       -0.08430000       1.78230000      -1.01010000
H       -0.83940000       1.84070000       0.59650000
H       -0.19210000      -0.45120000      -2.05130000
H        0.17210000      -0.43790000       2.14670000
