15
Properties=species:S:1:pos:R:3 gdb_43465=T pbc="F F F"
O       -0.00450000      -0.02960000      -0.04670000
C       -0.04290000       1.17270000      -0.01410000
C       -1.28360000       2.06970000       0.00290000
C       -0.73170000       3.48670000       0.00090000
C       -1.36160000       4.64540000      -0.69000000
N       -1.31170000       4.59830000       0.77310000
C        0.77650000       3.37850000       0.03260000
O        1.58770000       4.26590000       0.04120000
N        1.06300000       2.01350000       0.01720000
H       -1.91040000       1.83230000      -0.86070000
H       -1.86240000       1.83900000       0.90360000
H       -0.71650000       5.39540000      -1.13790000
H       -2.30600000       4.46820000      -1.19840000
H       -2.21330000       4.30480000       1.14380000
H        2.00920000       1.65880000       0.01200000
