12
Properties=species:S:1:pos:R:3 gdb_25054=T pbc="F F F"
O       -0.06080000      -0.05630000       0.00410000
C        0.03630000       1.13430000       0.00830000
O       -1.18170000       1.88320000       0.02870000
C       -1.20960000       3.20780000       0.03620000
C       -0.08640000       3.97650000       0.02550000
C        1.18340000       3.29860000       0.00520000
C        1.23520000       1.94820000      -0.00270000
C       -0.18320000       5.39660000       0.03440000
N       -0.24630000       6.55270000       0.04150000
H       -2.21630000       3.61040000       0.05170000
H        2.09200000       3.89030000      -0.00350000
H        2.17080000       1.40440000      -0.01770000
