18
Properties=species:S:1:pos:R:3 gdb_51190=T pbc="F F F"
O       -0.69730000       0.86420000       0.72100000
C        0.09460000       0.98350000      -0.17740000
C        1.32490000       1.86670000      -0.13150000
C        1.29630000       2.92430000      -1.21080000
C        1.37330000       2.57860000      -2.71820000
C        2.10730000       3.90040000      -2.82350000
C        1.50290000       4.86130000      -1.85210000
C        0.37490000       4.16320000      -1.11880000
N        2.53600000       3.87350000      -1.38050000
H       -0.04180000       0.43050000      -1.13550000
H        1.39860000       2.32220000       0.85980000
H        2.20800000       1.23160000      -0.28970000
H        2.05160000       1.74010000      -2.89980000
H        0.44020000       2.42910000      -3.27170000
H        2.79160000       4.22250000      -3.60000000
H        1.72420000       5.92200000      -1.88270000
H       -0.62030000       4.11150000      -1.57260000
H        0.29490000       4.51930000      -0.08840000
