18
Properties=species:S:1:pos:R:3 gdb_24424=T pbc="F F F"
C       -0.01760000       1.50070000      -0.04550000
C        1.40410000       2.09160000       0.03150000
C        2.11380000       1.75930000       1.36280000
C        1.88200000       0.31970000       1.68890000
C        0.94350000      -0.44240000       1.08030000
C       -0.02110000      -0.04480000       0.02400000
O        1.01280000      -1.70460000       1.60920000
C        2.00950000      -1.61830000       2.52690000
N        2.56380000      -0.45500000       2.62600000
H       -0.61450000       1.89300000       0.78720000
H       -0.50980000       1.82580000      -0.96750000
H        2.00090000       1.69420000      -0.79960000
H        1.36050000       3.17690000      -0.10500000
H        3.18630000       1.97050000       1.29120000
H        1.73020000       2.39850000       2.16980000
H       -1.02810000      -0.41900000       0.24190000
H        0.26510000      -0.47370000      -0.94660000
H        2.23740000      -2.51860000       3.07570000
