19
Properties=species:S:1:pos:R:3 gdb_117734=T pbc="F F F"
C       -0.10740000       1.61270000       0.14300000
C        0.03580000       0.10680000      -0.05400000
N       -1.27690000      -0.54020000       0.06540000
C       -1.32830000      -2.00110000      -0.07780000
C       -0.75650000      -2.81440000       1.09560000
C       -2.84930000      -2.27000000      -0.26350000
O       -3.52530000      -2.82160000       0.55800000
C       -0.67820000      -2.39190000      -1.33960000
N       -0.19340000      -2.73550000      -2.33070000
H        0.86050000       2.10690000       0.02200000
H       -0.80870000       2.03190000      -0.58350000
H       -0.47660000       1.84870000       1.14790000
H        0.42110000      -0.10230000      -1.05700000
H        0.77380000      -0.29270000       0.66130000
H       -1.69560000      -0.30460000       0.96080000
H       -1.33600000      -2.59610000       1.99550000
H       -0.82880000      -3.88730000       0.90110000
H        0.29190000      -2.56120000       1.26500000
H       -3.25920000      -1.83610000      -1.19630000
