20
Properties=species:S:1:pos:R:3 gdb_62027=T pbc="F F F"
C       -0.25820000       1.39310000      -0.00930000
N        0.01230000      -0.03320000      -0.05320000
C        0.01950000      -0.78960000       1.18570000
C       -1.37770000      -0.99850000       1.78350000
C       -1.34950000      -1.82880000       3.06160000
C       -2.68860000      -2.09570000       3.72310000
O       -0.31100000      -2.25170000       3.51700000
C        0.29050000      -0.62940000      -1.24900000
O        0.30640000      -0.07690000      -2.32890000
H        0.42710000       1.89190000       0.68640000
H       -0.11240000       1.78830000      -1.01480000
H       -1.28650000       1.60270000       0.30820000
H        0.47700000      -1.76390000       0.99480000
H        0.65990000      -0.28820000       1.92050000
H       -1.86320000      -0.03980000       2.00750000
H       -2.03480000      -1.49310000       1.05560000
H       -3.18540000      -1.15240000       3.97620000
H       -3.35380000      -2.62890000       3.03470000
H       -2.54360000      -2.68910000       4.62640000
H        0.51000000      -1.70810000      -1.12310000
