17
Properties=species:S:1:pos:R:3 gdb_107520=T pbc="F F F"
C        0.14160000       1.41180000       0.28010000
N        0.00330000       0.01990000      -0.15240000
C       -1.29620000      -0.50980000      -0.10340000
C       -1.91990000      -0.99760000       1.19110000
C       -1.79230000      -1.93310000       0.03140000
O       -2.87230000      -1.73380000      -0.89390000
C       -2.43250000      -0.38050000      -1.15930000
C       -3.47300000       0.62530000      -0.94880000
N       -4.27110000       1.44130000      -0.76510000
H        1.19850000       1.69040000       0.25550000
H       -0.42200000       2.13320000      -0.33140000
H       -0.20900000       1.50100000       1.31240000
H        0.43880000      -0.13070000      -1.05530000
H       -1.18650000      -1.14020000       1.97780000
H       -2.90220000      -0.66170000       1.50920000
H       -1.29070000      -2.89220000       0.02240000
H       -2.04390000      -0.30060000      -2.18220000
