17
Properties=species:S:1:pos:R:3 gdb_76059=T pbc="F F F"
O        0.04430000       1.46820000       0.03630000
C        0.01620000       0.07900000      -0.01410000
C       -0.53450000      -0.70970000       1.19180000
C       -0.95320000       0.02300000       2.34280000
C       -1.28540000       0.70560000       3.27900000
C       -1.30620000      -0.59120000      -0.11810000
C       -2.66630000       0.03120000      -0.37100000
C       -2.88630000      -1.22620000      -1.24380000
O       -1.55720000      -1.72540000      -0.93110000
H        0.11670000       1.73520000       0.96180000
H        0.85930000      -0.37970000      -0.52870000
H       -0.06630000      -1.67470000       1.36400000
H       -1.59660000       1.27390000       4.12020000
H       -3.30960000       0.12080000       0.50540000
H       -2.63320000       0.98300000      -0.90230000
H       -3.66290000      -1.91710000      -0.90020000
H       -3.00210000      -1.04840000      -2.31770000
