13
Properties=species:S:1:pos:R:3 gdb_132132=T pbc="F F F"
O       -0.09850000       1.32930000       0.01090000
C        0.02480000      -0.00130000       0.00290000
C        1.21190000      -0.68220000      -0.00720000
F        2.36700000       0.01840000      -0.00950000
C        1.16320000      -2.08940000      -0.01470000
N        0.06080000      -2.78860000      -0.01270000
C       -1.16240000      -2.12780000      -0.00260000
N       -2.32200000      -2.66150000       0.00090000
N       -1.11920000      -0.70840000       0.00510000
H        0.79010000       1.71070000       0.00830000
H        2.10770000      -2.63410000      -0.02270000
H       -2.21140000      -3.67360000      -0.00510000
H       -2.00740000      -0.22610000       0.01250000
