19
Properties=species:S:1:pos:R:3 gdb_115454=T pbc="F F F"
C        0.34780000       1.04270000       0.36920000
O       -0.05560000      -0.29870000       0.16060000
C       -1.41430000      -0.43590000      -0.15420000
C       -1.70560000      -1.92020000      -0.35670000
C       -1.98070000      -2.38190000       1.08300000
C       -2.70610000      -1.14140000       1.66030000
O       -2.24680000      -0.02330000       0.92230000
C       -4.21340000      -1.30980000       1.51560000
O       -4.89140000      -0.77440000       0.68120000
H        1.42090000       1.02630000       0.57150000
H        0.16160000       1.65800000      -0.52420000
H       -0.17720000       1.49340000       1.21930000
H       -1.67020000       0.20710000      -1.00780000
H       -2.59540000      -2.03630000      -0.98120000
H       -0.86670000      -2.43310000      -0.82740000
H       -2.57990000      -3.29390000       1.14450000
H       -1.04360000      -2.54780000       1.61840000
H       -2.48370000      -1.00220000       2.72700000
H       -4.64820000      -2.02500000       2.25490000
