14
Properties=species:S:1:pos:R:3 gdb_2249=T pbc="F F F"
C       -0.01910000       1.57740000       0.06890000
C        0.08100000       0.08250000       0.01930000
C       -0.83930000      -0.87730000       0.78780000
C        0.64300000      -0.94340000       0.99100000
N        1.30320000      -1.63770000      -0.11930000
C        0.74120000      -0.75960000      -1.07100000
O        0.79710000      -0.73690000      -2.26750000
H        0.95180000       2.04660000      -0.11900000
H       -0.71820000       1.94240000      -0.69080000
H       -0.37860000       1.91820000       1.04470000
H       -1.42090000      -0.40000000       1.57280000
H       -1.35220000      -1.68590000       0.27440000
H        1.16140000      -0.77530000       1.92580000
H        1.28790000      -2.64570000      -0.23460000
