17
Properties=species:S:1:pos:R:3 gdb_23608=T pbc="F F F"
O       -0.20700000       1.30100000      -0.22010000
N       -0.00140000      -0.06410000       0.04320000
C       -1.08760000      -0.70470000      -0.01050000
C       -2.54930000      -0.42490000      -0.27040000
N       -2.81170000      -1.89280000      -0.15330000
C       -1.38900000      -2.18010000       0.20210000
C       -0.69210000      -3.15460000      -0.72340000
C       -1.44610000      -4.12240000      -1.52840000
O       -0.88190000      -2.94850000      -2.11780000
H        0.68720000       1.65570000      -0.17000000
H       -3.02190000       0.20570000       0.49310000
H       -2.78740000      -0.01680000      -1.25820000
H       -3.45600000      -2.12120000       0.59430000
H       -1.23180000      -2.50570000       1.24050000
H        0.33370000      -3.39060000      -0.43590000
H       -0.97910000      -5.06330000      -1.81660000
H       -2.53150000      -4.11910000      -1.46270000
