22
Properties=species:S:1:pos:R:3 gdb_110980=T pbc="F F F"
C       -0.43810000       1.47980000       0.53930000
O        0.04000000       0.23150000       0.08420000
C        0.66620000      -0.51410000       1.08060000
C       -0.16500000      -1.42440000       2.04500000
C       -0.53030000      -2.29760000       0.81610000
C        1.00060000      -1.98620000       0.72500000
C        2.01950000      -2.48980000      -0.25490000
N        1.14410000      -2.16180000       2.23670000
C        1.10470000      -3.51060000       2.78870000
H        0.37040000       2.08750000       0.97330000
H       -0.85030000       2.00460000      -0.32570000
H       -1.22780000       1.36580000       1.29640000
H        1.47700000       0.03520000       1.57470000
H       -0.78520000      -1.13830000       2.89620000
H       -0.81790000      -3.33200000       1.00280000
H       -1.16600000      -1.84120000       0.05640000
H        1.77830000      -2.13860000      -1.26310000
H        3.01750000      -2.12470000       0.00840000
H        2.04720000      -3.58450000      -0.27500000
H        2.07380000      -3.98840000       2.60960000
H        0.97260000      -3.43520000       3.87330000
H        0.32240000      -4.18180000       2.40220000
