17
Properties=species:S:1:pos:R:3 gdb_62980=T pbc="F F F"
C       -0.08070000       1.56730000      -0.15620000
C       -0.01170000       0.05020000      -0.04680000
N       -1.26990000      -0.62650000       0.25460000
C        0.69520000      -0.68230000      -1.21090000
O        2.03400000      -0.18820000      -1.28050000
C        1.74220000      -1.21780000      -0.33750000
C        1.12190000      -0.55520000       0.90800000
C        1.95970000       0.34970000       1.67440000
N        2.61250000       1.07950000       2.28930000
H        0.88820000       1.98700000      -0.43630000
H       -0.81700000       1.85500000      -0.91520000
H       -0.38300000       2.01250000       0.79780000
H       -1.66010000      -0.25380000       1.11730000
H       -1.94950000      -0.41220000      -0.47210000
H        0.25130000      -1.08640000      -2.11320000
H        2.32550000      -2.12880000      -0.38170000
H        0.66160000      -1.29730000       1.56410000
