17
Properties=species:S:1:pos:R:3 gdb_77534=T pbc="F F F"
C       -0.00120000       1.44680000       0.09940000
C       -0.02890000      -0.04430000      -0.03480000
C        0.61070000      -0.96040000      -1.11330000
C        0.01430000      -1.89670000      -0.03390000
N        0.50990000      -0.97010000       1.06880000
C        0.11300000      -3.33000000       0.06150000
N        0.18050000      -4.48280000       0.12260000
C       -1.27560000      -0.99290000      -0.04580000
O       -2.11630000      -1.00750000       1.04390000
H        1.02230000       1.82060000       0.20740000
H       -0.44300000       1.91770000      -0.78440000
H       -0.57690000       1.75740000       0.97660000
H        0.16230000      -0.98160000      -2.11130000
H        1.70220000      -0.94890000      -1.15660000
H        1.53420000      -0.95650000       1.06950000
H       -1.86930000      -1.02120000      -0.96030000
H       -1.53540000      -0.99740000       1.82070000
