21
Properties=species:S:1:pos:R:3 gdb_95838=T pbc="F F F"
C        0.04480000       1.57030000       0.07950000
C        0.04350000       0.04970000       0.03720000
C        0.65080000      -0.51060000      -1.25520000
C        0.73700000      -2.05760000      -1.21660000
C        1.44400000      -2.48410000       0.09350000
C        0.78950000      -1.81080000       1.29990000
O        0.78200000      -0.39900000       1.17100000
C       -0.58250000      -2.67630000      -1.34640000
C       -1.66750000      -3.18440000      -1.45350000
H        1.06670000       1.95470000       0.00090000
H       -0.54620000       1.98010000      -0.74510000
H       -0.38050000       1.92300000       1.02290000
H       -0.99350000      -0.31820000       0.12060000
H        0.06210000      -0.18600000      -2.11890000
H        1.66490000      -0.10890000      -1.36880000
H        1.34460000      -2.39180000      -2.06680000
H        1.41880000      -3.57240000       0.20650000
H        2.49370000      -2.17420000       0.03710000
H       -0.23880000      -2.18800000       1.42410000
H        1.34340000      -2.03180000       2.21700000
H       -2.62310000      -3.63640000      -1.55440000
