17
Properties=species:S:1:pos:R:3 gdb_85377=T pbc="F F F"
C       -0.09790000       1.55120000      -0.01700000
C        0.04700000       0.03220000       0.00120000
C        0.73820000      -0.51070000      -1.25040000
C        1.02490000      -1.97570000      -1.09530000
N        0.85430000      -2.81510000      -2.01970000
O        1.53010000      -2.36450000       0.13240000
C        1.52700000      -1.55890000       1.25960000
O        2.09300000      -1.93750000       2.24830000
N        0.85770000      -0.37870000       1.14150000
H        0.88050000       2.03360000      -0.10670000
H       -0.71990000       1.86190000      -0.86080000
H       -0.57710000       1.90990000       0.90010000
H       -0.95640000      -0.41610000       0.07060000
H        0.13020000      -0.37110000      -2.14420000
H        1.68690000       0.02420000      -1.38880000
H        1.12820000      -3.74970000      -1.70880000
H        0.78900000       0.13320000       2.00720000
