17
Properties=species:S:1:pos:R:3 gdb_99503=T pbc="F F F"
C        0.77500000       1.31770000      -0.13690000
O        0.78890000      -0.10180000       0.05210000
C        0.26450000      -0.55080000       1.20630000
N       -0.21630000       0.22570000       2.08050000
C        0.39730000      -2.07300000       1.23100000
C        1.89270000      -2.51190000       1.30900000
O        2.03740000      -3.90740000       1.24940000
C       -0.34110000      -2.66170000       2.34550000
N       -0.87650000      -3.14620000       3.24810000
H        1.34090000       1.81640000       0.65400000
H        1.23630000       1.48810000      -1.10990000
H       -0.25050000       1.69540000      -0.12240000
H       -0.57200000      -0.28600000       2.88540000
H       -0.00620000      -2.47370000       0.29460000
H        2.40350000      -2.09670000       0.43860000
H        2.34170000      -2.08010000       2.21440000
H        1.70840000      -4.28570000       2.07280000
