16
Properties=species:S:1:pos:R:3 gdb_56611=T pbc="F F F"
C        0.02830000       1.57940000      -0.01210000
C        0.02730000       0.03860000       0.00050000
C        0.62650000      -0.48110000      -1.23180000
N        1.10510000      -0.85930000      -2.21300000
C        0.77130000      -0.54180000       1.25020000
C        0.03870000      -0.09320000       2.52540000
O        0.48310000       0.69330000       3.31390000
C        0.81380000      -1.99740000       1.24200000
C        0.79800000      -3.19830000       1.27800000
H        1.05080000       1.96450000      -0.05040000
H       -0.51170000       1.95140000      -0.88530000
H       -0.45180000       1.97150000       0.88760000
H       -1.00750000      -0.32530000       0.03290000
H        1.78100000      -0.11950000       1.28790000
H       -0.95690000      -0.57080000       2.65850000
H        0.81140000      -4.26080000       1.28870000
