23
Properties=species:S:1:pos:R:3 gdb_116478=T pbc="F F F"
C        0.19210000       0.43130000      -1.82930000
C       -0.12490000       0.42690000      -0.33070000
C       -1.35610000      -0.42640000       0.06680000
C       -1.14540000      -1.92420000      -0.19780000
O       -0.06160000      -2.50210000       0.50600000
C       -0.35630000      -2.87690000       1.83700000
C       -0.32610000      -1.72280000       2.84030000
C       -1.33840000      -0.62210000       2.63180000
C       -1.77190000      -0.09580000       1.48440000
H        1.02620000       1.10630000      -2.04550000
H        0.47610000      -0.56120000      -2.19190000
H       -0.66830000       0.76910000      -2.41860000
H        0.74040000       0.06050000       0.23210000
H       -0.29830000       1.45650000       0.00340000
H       -2.18600000      -0.13150000      -0.59290000
H       -2.07550000      -2.46770000       0.03110000
H       -0.92590000      -2.07920000      -1.25950000
H       -1.33800000      -3.37630000       1.87750000
H        0.40590000      -3.61290000       2.11620000
H       -0.46740000      -2.15460000       3.83940000
H        0.68580000      -1.29180000       2.84400000
H       -1.72710000      -0.18450000       3.54970000
H       -2.47350000       0.73360000       1.56170000
