20
Properties=species:S:1:pos:R:3 gdb_61897=T pbc="F F F"
C        0.11130000       1.54470000       0.07200000
C        0.00490000       0.00670000      -0.01580000
C       -1.44590000      -0.49870000       0.00910000
C       -2.18700000      -0.15700000       1.31730000
C       -3.52680000      -0.73950000       1.36170000
N       -4.58300000      -1.20740000       1.38610000
C        0.69400000      -0.44020000      -1.31300000
C        2.18140000      -0.72710000      -1.22850000
O        0.07770000      -0.54390000      -2.34800000
H        1.14980000       1.87920000      -0.01210000
H       -0.45950000       2.01240000      -0.73630000
H       -0.27060000       1.91800000       1.02620000
H        0.55800000      -0.42320000       0.83050000
H       -1.98630000      -0.08430000      -0.84590000
H       -1.45190000      -1.58520000      -0.12470000
H       -1.62470000      -0.52510000       2.18440000
H       -2.28390000       0.92650000       1.44290000
H        2.71170000       0.06370000      -0.68790000
H        2.33670000      -1.65440000      -0.66330000
H        2.59830000      -0.84420000      -2.22930000
