10
Properties=species:S:1:pos:R:3 gdb_132478=T pbc="F F F"
F        0.08990000       0.07360000       0.00220000
C       -0.07150000       1.37120000       0.01140000
C       -1.25970000       2.00190000       0.03110000
N       -1.28990000       3.37920000       0.03890000
C       -0.18860000       4.01520000       0.02720000
F       -0.18460000       5.33330000       0.03440000
C        1.15780000       3.41500000       0.00560000
O        2.21580000       3.96100000      -0.00590000
O        1.09730000       2.01050000      -0.00110000
H       -2.19430000       1.46100000       0.04100000
