17
Properties=species:S:1:pos:R:3 gdb_125177=T pbc="F F F"
C        0.08570000       1.50730000      -0.07080000
C       -0.08560000       0.03390000       0.04410000
C       -1.15080000      -0.80020000       0.07070000
C       -2.64370000      -0.94820000       0.03970000
C       -2.78790000      -2.48720000      -0.21020000
N       -1.52170000      -3.07840000       0.28520000
C       -0.56360000      -2.08530000       0.20060000
N        0.74130000      -2.08390000       0.24220000
O        1.05450000      -0.69690000       0.14310000
H        0.72130000       1.76180000      -0.92520000
H       -0.88400000       1.99230000      -0.19980000
H        0.56220000       1.91770000       0.82590000
H       -3.09710000      -0.67220000       0.99920000
H       -3.14980000      -0.37180000      -0.73900000
H       -3.64350000      -2.91610000       0.31780000
H       -2.91990000      -2.67660000      -1.28500000
H       -1.28060000      -3.99660000      -0.05870000
