15
Properties=species:S:1:pos:R:3 gdb_69019=T pbc="F F F"
C       -0.05950000       1.56110000       0.07390000
C        0.16510000       0.09140000      -0.01550000
O       -0.68210000      -0.80070000       0.73870000
C        0.73300000      -0.92690000       0.93890000
C        1.21920000      -1.85400000      -0.19060000
C        0.67930000      -0.77190000      -1.17200000
O        0.78050000      -0.59750000      -2.34860000
C        1.29100000      -0.73280000       2.23050000
C        1.79210000      -0.58810000       3.31390000
H        0.77650000       2.10240000      -0.37820000
H       -0.97300000       1.83970000      -0.46090000
H       -0.16060000       1.86530000       1.11870000
H        2.30540000      -1.94760000      -0.27490000
H        0.74950000      -2.83860000      -0.21270000
H        2.22640000      -0.45840000       4.27470000
