10
Properties=species:S:1:pos:R:3 gdb_130566=T pbc="F F F"
O        0.01850000      -0.05240000       0.00380000
C       -0.04680000       1.15640000       0.00770000
C        1.17470000       1.98080000       0.00100000
N        2.15630000       2.59060000      -0.00460000
C       -1.31020000       1.88770000       0.01910000
C       -2.59090000       1.39150000       0.02700000
O       -3.45180000       2.36870000       0.03650000
N       -2.61500000       3.62690000       0.03390000
N       -1.43520000       3.26180000       0.02390000
H       -2.95500000       0.37530000       0.02670000
