18
Properties=species:S:1:pos:R:3 gdb_20208=T pbc="F F F"
C       -0.03590000       1.56140000      -0.07850000
C        1.44970000       1.99290000       0.00410000
C        2.16160000       0.86080000       0.77820000
C        1.86730000       0.90730000       2.28850000
O        0.55190000       0.36220000       2.44830000
C        0.33850000      -0.54200000       1.39130000
C       -0.00410000       0.03750000       0.03300000
C        1.41140000      -0.42160000       0.35540000
H       -0.61770000       1.99540000       0.74100000
H       -0.49910000       1.87970000      -1.01620000
H        1.87110000       2.04970000      -1.00570000
H        1.58670000       2.97410000       0.47070000
H        3.23510000       0.82450000       0.57930000
H        2.59520000       0.29840000       2.84640000
H        1.86390000       1.91860000       2.70720000
H       -0.08520000      -1.49100000       1.70350000
H       -0.63750000      -0.55950000      -0.61470000
H        1.90880000      -1.26130000      -0.11270000
