18
Properties=species:S:1:pos:R:3 gdb_127460=T pbc="F F F"
C        0.14030000       1.35430000      -0.06790000
N        0.02550000      -0.08130000       0.02520000
N        0.07300000      -0.85060000      -1.09530000
C       -0.05260000      -2.09720000      -0.65320000
C       -0.10000000      -3.23900000      -1.61700000
O        0.68990000      -4.30490000      -1.09790000
C       -0.15110000      -2.15170000       0.75470000
C       -0.08620000      -0.83010000       1.15460000
N       -0.19080000      -0.22090000       2.41120000
H        1.17430000       1.69520000       0.07110000
H       -0.19490000       1.65450000      -1.06070000
H       -0.49330000       1.82010000       0.69170000
H       -1.14340000      -3.56840000      -1.75440000
H        0.26540000      -2.88820000      -2.59260000
H        0.55440000      -5.07020000      -1.66450000
H       -0.22990000      -3.02500000       1.38060000
H       -0.29480000      -0.91110000       3.14340000
H        0.59910000       0.37440000       2.63510000
