16
Properties=species:S:1:pos:R:3 gdb_28061=T pbc="F F F"
C       -0.03510000       1.47780000       0.03560000
C        0.00380000      -0.01230000      -0.02000000
N       -0.00620000      -0.74210000      -1.12270000
C        0.04030000      -2.03890000      -0.70090000
O        0.04690000      -3.11360000      -1.53820000
C        0.00470000      -2.90480000      -2.88110000
N        0.01140000      -3.91070000      -3.64270000
C        0.07950000      -2.12840000       0.66320000
N        0.05500000      -0.80770000       1.08150000
H        0.85220000       1.89110000       0.52870000
H       -0.07290000       1.86420000      -0.98340000
H       -0.91570000       1.84330000       0.57610000
H       -0.03160000      -1.84850000      -3.15080000
H       -0.02340000      -3.59930000      -4.61170000
H        0.12040000      -2.96250000       1.34000000
H        0.07240000      -0.49640000       2.03800000
