15
Properties=species:S:1:pos:R:3 gdb_3616=T pbc="F F F"
C       -0.01430000       1.54480000       0.04100000
C        1.51520000       1.53270000      -0.01040000
C        2.06100000       0.48710000       0.95170000
C        1.13440000      -0.04590000       2.03920000
O       -0.01040000      -0.55750000       1.34580000
C        0.03560000      -0.01980000       0.03350000
C        1.52760000       0.05540000      -0.38050000
H       -0.51490000       2.00970000       0.89690000
H       -0.44230000       1.93700000      -0.88600000
H        2.15080000       2.32470000      -0.38900000
H        3.13130000       0.48900000       1.12050000
H        1.59610000      -0.86420000       2.60430000
H        0.82970000       0.73200000       2.75310000
H       -0.68390000      -0.55340000      -0.58550000
H        2.06000000      -0.49910000      -1.14060000
