25
Properties=species:S:1:pos:R:3 gdb_59333=T pbc="F F F"
C       -0.21120000       1.51450000      -0.05500000
C       -0.11960000      -0.01860000       0.00430000
C       -1.51810000      -0.64700000      -0.03460000
C        0.80520000      -0.51510000      -1.10880000
C        1.00990000      -2.02070000      -1.37330000
C        0.60870000      -1.68330000      -2.83330000
C        1.77290000      -1.66330000      -3.81960000
C       -0.60140000      -2.41160000      -3.39780000
O        0.26030000      -0.32050000      -2.43750000
H        0.77680000       1.97750000       0.04040000
H       -0.63910000       1.83270000      -1.01120000
H       -0.84510000       1.90410000       0.74770000
H        0.36640000      -0.30030000       0.95060000
H       -2.00960000      -0.42620000      -0.98650000
H       -1.48900000      -1.73390000       0.08960000
H       -2.14060000      -0.24390000       0.77030000
H        1.76470000       0.01700000      -1.01650000
H        2.02190000      -2.40260000      -1.22680000
H        0.30180000      -2.67460000      -0.86120000
H        2.09710000      -2.68150000      -4.06150000
H        1.47440000      -1.16790000      -4.74900000
H        2.62710000      -1.12050000      -3.40430000
H       -1.42980000      -2.40650000      -2.68480000
H       -0.94080000      -1.92750000      -4.31970000
H       -0.35050000      -3.45210000      -3.63180000
