17
Properties=species:S:1:pos:R:3 gdb_41141=T pbc="F F F"
C        0.01900000       1.50540000       0.08700000
O        1.47090000       1.50680000      -0.02700000
C        1.51100000       0.07790000      -0.01770000
C        2.49740000      -0.69020000      -0.81320000
C        2.85930000      -1.80060000      -0.16220000
C        2.19990000      -1.95190000       1.19700000
C        1.41980000      -0.63180000       1.35970000
O       -0.02830000      -0.73770000       1.24920000
C       -0.03470000      -0.03590000      -0.00130000
H       -0.33090000       1.92010000       1.03840000
H       -0.43880000       2.04390000      -0.75030000
H        2.82450000      -0.39380000      -1.80210000
H        3.53730000      -2.55120000      -0.55430000
H        1.50020000      -2.79590000       1.21670000
H        2.93230000      -2.12620000       1.99410000
H        1.71410000      -0.04750000       2.23610000
H       -0.67810000      -0.49900000      -0.75110000
