20
Properties=species:S:1:pos:R:3 gdb_30922=T pbc="F F F"
C       -0.00780000       1.38350000       0.02680000
O        0.07300000      -0.04230000       0.04220000
C        0.58880000      -0.59810000      -1.08740000
C       -0.02710000      -0.95590000      -2.26670000
C       -1.47620000      -0.76770000      -2.59830000
C        0.99030000      -1.55160000      -3.07160000
C        2.16390000      -1.53800000      -2.35780000
N        1.92210000      -0.95300000      -1.13690000
C        2.88750000      -0.74110000      -0.08080000
H        0.98670000       1.83970000      -0.06030000
H       -0.63170000       1.73370000      -0.80330000
H       -0.46040000       1.68170000       0.97530000
H       -1.63180000      -0.00430000      -3.37100000
H       -1.92630000      -1.69460000      -2.97140000
H       -2.03820000      -0.46270000      -1.71060000
H        0.86040000      -1.95960000      -4.06310000
H        3.14880000      -1.90250000      -2.60350000
H        3.52540000       0.12900000      -0.27790000
H        2.35090000      -0.57900000       0.85520000
H        3.52560000      -1.62240000       0.02710000
