17
Properties=species:S:1:pos:R:3 gdb_51096=T pbc="F F F"
O        0.03220000       0.00050000       0.05400000
C        0.09390000       1.17610000       0.24840000
O        1.00830000       1.96210000      -0.36120000
C        0.97660000       3.34870000      -0.12360000
C        0.56370000       4.04570000       1.21480000
C        1.31790000       5.20490000       0.51340000
C        2.30380000       4.14420000      -0.03870000
O        0.48480000       5.51510000      -0.61890000
C        0.19650000       4.20360000      -1.13890000
H       -0.56450000       1.73460000       0.93730000
H       -0.49610000       4.20030000       1.42660000
H        1.09330000       3.64530000       2.08050000
H        1.62350000       6.11790000       1.01700000
H        2.98200000       3.74430000       0.71590000
H        2.82620000       4.37540000      -0.96850000
H        0.57230000       4.09540000      -2.16200000
H       -0.88270000       4.00920000      -1.12650000
