23
Properties=species:S:1:pos:R:3 gdb_110061=T pbc="F F F"
C        0.38630000       1.19510000       0.06460000
O        0.22260000      -0.20120000       0.17650000
C       -1.12270000      -0.65340000       0.14590000
C       -1.17790000      -2.01210000      -0.57880000
C       -0.36740000      -2.11340000      -1.86650000
C       -0.73620000      -2.95590000       0.54760000
O       -1.23670000      -2.39550000       1.75770000
C       -1.65470000      -1.04030000       1.54390000
C       -1.18330000      -0.18950000       2.71250000
H        1.46150000       1.39070000       0.03960000
H       -0.06400000       1.58210000      -0.86220000
H       -0.04830000       1.74000000       0.91400000
H       -1.76240000       0.09920000      -0.33390000
H       -2.23550000      -2.21160000      -0.79440000
H        0.67750000      -1.85150000      -1.68570000
H       -0.40570000      -3.13030000      -2.27110000
H       -0.75780000      -1.43810000      -2.63520000
H       -1.13450000      -3.97050000       0.43340000
H        0.36150000      -3.02000000       0.58800000
H       -2.75670000      -1.01700000       1.50000000
H       -0.09280000      -0.12960000       2.72350000
H       -1.59970000       0.82180000       2.65700000
H       -1.51600000      -0.64220000       3.65040000
