21
Properties=species:S:1:pos:R:3 gdb_80653=T pbc="F F F"
C       -0.52640000       1.36720000      -0.02500000
C        0.07350000      -0.04460000       0.00250000
C        0.89930000      -0.38990000      -1.24730000
C        1.51330000      -1.81060000      -1.11090000
C        2.66870000      -1.13430000      -0.32280000
C        2.34890000       0.16410000      -1.11800000
C        2.25890000      -0.95450000       1.14040000
C        0.90010000      -0.25760000       1.28680000
O        0.49650000       0.10980000       2.36510000
H        0.25110000       2.12520000      -0.16930000
H       -1.24640000       1.46400000      -0.84320000
H       -1.03200000       1.57850000       0.91930000
H       -0.75820000      -0.76220000       0.07610000
H        0.34150000      -0.15890000      -2.15860000
H        0.92250000      -2.57870000      -0.59990000
H        1.85210000      -2.20090000      -2.07410000
H        3.67070000      -1.56080000      -0.40990000
H        2.86060000       0.18650000      -2.08330000
H        2.49620000       1.12540000      -0.61490000
H        2.19420000      -1.92090000       1.65760000
H        2.98890000      -0.35790000       1.69980000
