19
Properties=species:S:1:pos:R:3 gdb_93580=T pbc="F F F"
C        0.21790000       1.54660000      -0.05680000
C        0.02190000       0.03440000       0.04090000
C        0.66670000      -0.76330000      -1.12870000
O        1.54320000      -1.70680000      -0.47590000
C        1.45310000      -1.43500000       0.86160000
N        0.66800000      -0.51400000       1.24610000
C        2.30950000      -2.25990000       1.73140000
C        2.52790000      -3.69800000       1.39480000
N        3.61680000      -2.73430000       1.23430000
H        1.28320000       1.79380000      -0.11040000
H       -0.27590000       1.94720000      -0.94870000
H       -0.20200000       2.04090000       0.82280000
H       -1.05310000      -0.17640000       0.10290000
H       -0.05260000      -1.32370000      -1.73120000
H        1.27160000      -0.13400000      -1.79040000
H        2.29420000      -1.94590000       2.76870000
H        2.65460000      -4.40880000       2.20610000
H        2.03710000      -4.08390000       0.50690000
H        3.69760000      -2.48440000       0.25090000
