19
Properties=species:S:1:pos:R:3 gdb_67472=T pbc="F F F"
O        0.00250000       1.41370000      -0.06640000
C        0.02150000       0.02990000      -0.03850000
C       -1.15010000      -0.97230000       0.08850000
C       -0.65270000      -1.71430000      -1.15220000
C        0.65190000      -0.84730000      -1.14430000
C        1.92310000      -1.54750000      -0.65520000
C        1.62480000      -2.40590000       0.58150000
O        0.88660000      -1.72930000       1.59460000
C       -0.08850000      -0.81610000       1.17080000
H        0.64000000       1.74250000       0.57600000
H       -2.19050000      -0.78670000       0.33120000
H       -0.54540000      -2.80040000      -1.08950000
H       -1.26930000      -1.47890000      -2.02330000
H        0.81380000      -0.30480000      -2.07710000
H        2.34790000      -2.19640000      -1.43040000
H        2.68210000      -0.79200000      -0.41560000
H        1.08470000      -3.31470000       0.27990000
H        2.55430000      -2.72810000       1.06080000
H       -0.48030000      -0.30570000       2.04670000
