17
Properties=species:S:1:pos:R:3 gdb_82287=T pbc="F F F"
O       -0.11600000       1.45930000      -0.15120000
C       -0.06610000       0.05930000      -0.06730000
C       -1.45220000      -0.54550000      -0.06340000
C       -2.22290000      -0.75050000      -1.32650000
C       -1.60320000      -1.95410000      -0.60870000
C       -0.42060000      -2.58650000      -1.22120000
C        0.70940000      -1.91940000      -1.51240000
C        0.84620000      -0.50070000      -1.17240000
O        1.66510000       0.24560000      -1.68220000
H        0.65520000       1.69870000      -0.69110000
H        0.42800000      -0.25200000       0.87460000
H       -2.03220000      -0.30860000       0.82250000
H       -3.30170000      -0.65060000      -1.28880000
H       -1.77030000      -0.46080000      -2.26870000
H       -2.29410000      -2.62420000      -0.10960000
H       -0.50620000      -3.63760000      -1.48740000
H        1.53070000      -2.37950000      -2.05100000
