21
Properties=species:S:1:pos:R:3 gdb_36787=T pbc="F F F"
C       -0.07570000      -1.20080000      -0.09330000
C       -0.04770000       0.00060000      -0.12240000
C        0.02080000       1.45650000      -0.15100000
C        1.44280000       1.99990000       0.09540000
C        1.50010000       3.52920000       0.06200000
C        2.91070000       4.08220000       0.30530000
C        2.95310000       5.58990000       0.26370000
C        4.08770000       6.33550000      -0.29310000
O        2.87250000       6.19520000      -1.03150000
H       -0.11370000      -2.26150000      -0.07100000
H       -0.34530000       1.82050000      -1.12010000
H       -0.66310000       1.86860000       0.60300000
H        1.80120000       1.63140000       1.06410000
H        2.11790000       1.58330000      -0.66140000
H        1.14200000       3.89440000      -0.90880000
H        0.81390000       3.93790000       0.81690000
H        3.28080000       3.74370000       1.28270000
H        3.59980000       3.68820000      -0.45130000
H        2.34270000       6.09390000       1.01680000
H        4.30680000       7.34150000       0.06270000
H        4.94220000       5.78990000      -0.69210000
