18
Properties=species:S:1:pos:R:3 gdb_124748=T pbc="F F F"
C        0.24770000       1.35510000      -0.33930000
C        0.03780000      -0.05500000       0.21210000
O        0.36730000      -0.13620000       1.60190000
C       -1.36480000      -0.56130000      -0.01330000
C       -2.22080000      -0.57050000      -1.10690000
N       -1.96550000      -0.01500000      -2.38800000
C       -3.39040000      -1.21010000      -0.63470000
N       -3.28110000      -1.57540000       0.64180000
N       -2.04460000      -1.18520000       0.98380000
H        1.28980000       1.65930000      -0.20980000
H       -0.02210000       1.40010000      -1.39710000
H       -0.39880000       2.06640000       0.18880000
H        0.75190000      -0.73470000      -0.27240000
H       -0.00720000       0.64270000       2.02940000
H       -1.28840000      -0.56180000      -2.91070000
H       -2.81440000       0.01580000      -2.94050000
H       -4.30580000      -1.40440000      -1.17670000
H       -1.67740000      -1.37030000       1.90220000
