19
Properties=species:S:1:pos:R:3 gdb_120524=T pbc="F F F"
C        0.45990000       1.59950000       0.56170000
O        0.66810000       0.23830000       0.26840000
C       -0.17250000      -0.62040000       1.00340000
C        0.15070000      -2.04440000       0.58860000
C        1.45520000      -2.66100000       1.12720000
C        0.51750000      -3.65550000       1.86620000
O       -0.65760000      -2.99550000       1.32120000
C        0.61570000      -5.05750000       1.49560000
C        0.71110000      -6.21680000       1.19220000
H        0.65830000       1.82380000       1.62170000
H        1.15100000       2.17710000      -0.05690000
H       -0.57070000       1.91290000       0.33260000
H       -0.01520000      -0.49980000       2.08920000
H       -1.23660000      -0.41160000       0.80110000
H        0.01110000      -2.14880000      -0.49410000
H        2.10720000      -3.11560000       0.38300000
H        2.03760000      -2.01000000       1.78040000
H        0.53380000      -3.56300000       2.95950000
H        0.78880000      -7.24180000       0.92540000
