20
Properties=species:S:1:pos:R:3 gdb_126634=T pbc="F F F"
C        0.01180000       1.55730000       0.08440000
C       -0.03870000       0.02960000       0.01160000
C        0.67240000      -0.50760000      -1.23640000
N        0.66710000      -1.95950000      -1.31050000
N        1.66880000      -2.65660000      -0.72610000
N        1.41250000      -3.92240000      -0.88560000
C        0.24460000      -4.04960000      -1.56960000
C       -0.25610000      -2.79800000      -1.85350000
C       -1.48010000      -2.35140000      -2.57910000
H        1.04520000       1.91910000       0.11480000
H       -0.47530000       2.01610000      -0.78330000
H       -0.49490000       1.92330000       0.98160000
H        0.43760000      -0.41220000       0.89320000
H       -1.08030000      -0.31310000       0.01200000
H        0.20840000      -0.11450000      -2.14680000
H        1.72160000      -0.20150000      -1.23630000
H       -0.16460000      -5.01460000      -1.82390000
H       -2.15440000      -1.77370000      -1.93710000
H       -1.23690000      -1.72740000      -3.44680000
H       -2.03120000      -3.22180000      -2.94130000
