17
Properties=species:S:1:pos:R:3 gdb_23397=T pbc="F F F"
O       -0.14880000       1.33370000      -0.01340000
N        0.01540000      -0.06910000      -0.04280000
C       -1.10270000      -0.65260000      -0.10730000
C       -2.57820000      -0.32190000       0.03370000
C       -3.28010000      -0.54820000      -1.30810000
O       -2.59940000      -1.53780000      -2.07100000
C       -2.03920000      -2.60800000      -1.32020000
C       -1.50200000      -2.10540000       0.02450000
N       -2.72360000      -1.63010000       0.79450000
H        0.76250000       1.64020000       0.04360000
H       -2.89580000       0.58740000       0.54430000
H       -4.32120000      -0.84160000      -1.10830000
H       -3.27140000       0.36020000      -1.91780000
H       -2.78330000      -3.39380000      -1.12350000
H       -1.23500000      -3.01940000      -1.93780000
H       -0.85000000      -2.82330000       0.52430000
H       -2.43090000      -1.45810000       1.75580000
