18
Properties=species:S:1:pos:R:3 gdb_113184=T pbc="F F F"
N       -0.57280000       0.95710000      -0.00500000
H       -0.60470000      -0.06510000       0.02750000
H        0.08100000       1.24900000      -0.73370000
H       -1.49470000       1.32420000      -0.26200000
C       -0.19450000       1.62500000       1.35020000
C       -0.41660000       3.08370000       1.26870000
C       -1.83640000       3.59850000       0.99030000
C       -1.30780000       3.67770000       2.37690000
O       -1.80860000       2.82970000       3.33940000
C       -0.82320000       5.02880000       2.97730000
O       -0.98440000       5.03250000       4.22250000
O       -0.34940000       5.84850000       2.18280000
H       -0.85210000       1.16860000       2.09670000
H        0.84150000       1.33540000       1.53470000
H        0.39730000       3.72280000       0.94420000
H       -1.89600000       4.52220000       0.42640000
H       -2.63640000       2.87760000       0.81500000
H       -1.62960000       3.41980000       4.13010000
