25
Properties=species:S:1:pos:R:3 gdb_118264=T pbc="F F F"
C        0.13020000       1.62300000       0.01930000
C        0.00870000       0.09610000       0.01110000
C        0.61870000      -0.53810000      -1.24530000
C        0.61530000      -2.07910000      -1.27700000
C       -0.81110000      -2.64920000      -1.30040000
C        1.45240000      -2.57420000      -2.47130000
C        1.71570000      -4.09530000      -2.48050000
C        2.58130000      -4.50900000      -3.57840000
C        3.29570000      -4.82340000      -4.49270000
H        1.17890000       1.93750000      -0.02710000
H       -0.38380000       2.06550000      -0.84140000
H       -0.30710000       2.05430000       0.92520000
H        0.50540000      -0.31510000       0.90030000
H       -1.04860000      -0.17970000       0.09790000
H        0.09310000      -0.16020000      -2.13460000
H        1.65630000      -0.19020000      -1.34010000
H        1.10790000      -2.43070000      -0.35710000
H       -0.81540000      -3.74310000      -1.28550000
H       -1.39270000      -2.31670000      -0.43640000
H       -1.34200000      -2.32650000      -2.20450000
H        0.95940000      -2.29330000      -3.41060000
H        2.42130000      -2.06200000      -2.46880000
H        2.17230000      -4.39030000      -1.52590000
H        0.76940000      -4.64500000      -2.54630000
H        3.92590000      -5.11340000      -5.29630000
