13
Properties=species:S:1:pos:R:3 gdb_49944=T pbc="F F F"
N       -0.35740000       1.02960000      -0.69000000
C       -0.13860000      -0.07830000      -0.12280000
N       -1.13090000      -0.67920000       0.67800000
C       -2.51550000      -0.57240000       0.32460000
C       -1.79960000      -1.91480000       0.23800000
C       -1.52020000      -2.43880000      -1.08350000
N       -1.27410000      -2.85250000      -2.13390000
C       -2.01420000      -2.91810000       1.26110000
N       -2.20580000      -3.71110000       2.07830000
H        0.47980000       1.36810000      -1.16250000
H        0.79440000      -0.64880000      -0.12070000
H       -3.21200000      -0.42970000       1.14420000
H       -2.75870000      -0.09120000      -0.61870000
