18
Properties=species:S:1:pos:R:3 gdb_16450=T pbc="F F F"
O       -0.06560000       1.43500000       0.05090000
C       -0.00850000       0.05080000       0.05000000
C       -0.28780000      -0.75910000      -1.18030000
C       -1.17610000      -0.93230000       0.03690000
C       -0.49470000      -1.77110000       1.14040000
C        0.48670000      -2.92020000       0.74800000
C        1.68050000      -1.90880000       0.77890000
C        0.69410000      -0.76550000       1.16360000
H        0.62930000       1.76800000      -0.52770000
H       -0.75800000      -0.18370000      -1.97230000
H        0.36940000      -1.54680000      -1.53740000
H       -2.24080000      -0.74290000      -0.03230000
H       -1.11120000      -1.92640000       2.02600000
H        0.56190000      -3.69810000       1.51140000
H        0.29030000      -3.40720000      -0.21060000
H        2.41090000      -2.12890000       1.56130000
H        2.22330000      -1.77340000      -0.16110000
H        0.90920000      -0.17170000       2.05220000
