13
Properties=species:S:1:pos:R:3 gdb_25529=T pbc="F F F"
N        0.72330000       1.04750000       1.01020000
C        0.30200000       0.01210000       0.44110000
O        0.69470000      -0.55140000      -0.73800000
C       -0.08010000      -1.69630000      -0.93580000
C       -0.90730000      -1.80130000       0.10300000
N       -1.89140000      -2.69230000       0.48280000
C       -2.23450000      -3.78960000      -0.26480000
O       -1.71040000      -4.07460000      -1.31660000
O       -0.70080000      -0.76100000       0.97830000
H        1.46190000       1.48190000       0.46360000
H        0.08060000      -2.28340000      -1.81720000
H       -2.36360000      -2.50290000       1.35430000
H       -3.04150000      -4.37560000       0.20840000
