23
Properties=species:S:1:pos:R:3 gdb_58266=T pbc="F F F"
C       -0.04070000       1.48820000      -0.15510000
C        0.02670000      -0.03780000      -0.02280000
O        0.61840000      -0.62210000      -1.17500000
C        0.70630000      -0.53740000       1.28410000
C        0.70270000      -2.07140000       1.32120000
C        2.09710000       0.08390000       1.44620000
C        3.16150000      -0.53890000       2.38220000
C        4.02820000      -0.64400000       1.11200000
O        2.95340000      -0.14780000       0.28410000
H        0.95630000       1.92140000      -0.28270000
H       -0.62850000       1.74970000      -1.03900000
H       -0.51060000       1.95070000       0.72070000
H       -1.00200000      -0.42140000      -0.00670000
H        1.57310000      -0.48650000      -1.09400000
H        0.10310000      -0.16060000       2.12310000
H        0.99920000      -2.45870000       2.29990000
H       -0.30100000      -2.45130000       1.10810000
H        1.37200000      -2.48110000       0.56120000
H        1.99260000       1.16410000       1.60580000
H        3.53860000       0.12010000       3.16530000
H        2.88760000      -1.49750000       2.82150000
H        4.89890000       0.02190000       1.08070000
H        4.33830000      -1.65170000       0.81480000
