23
Properties=species:S:1:pos:R:3 gdb_109915=T pbc="F F F"
C       -0.01560000       1.63250000      -0.08830000
C        0.03980000       0.10480000       0.02100000
C       -1.34280000      -0.54290000       0.12860000
C       -1.39400000      -2.10520000       0.07930000
C       -0.14680000      -2.84630000       0.59600000
C       -2.60840000      -2.40990000       0.92750000
C       -3.03490000      -1.35540000       1.62230000
C       -2.16060000      -0.14620000       1.39730000
O       -1.37420000       0.15980000       2.55450000
H        0.98610000       2.05330000      -0.22060000
H       -0.62410000       1.94900000      -0.94350000
H       -0.44490000       2.07140000       0.81650000
H        0.55520000      -0.30530000      -0.85700000
H        0.64430000      -0.16700000       0.89240000
H       -1.94290000      -0.19480000      -0.72270000
H       -1.55790000      -2.43220000      -0.95600000
H        0.09510000      -2.55870000       1.62470000
H       -0.31330000      -3.92880000       0.58940000
H        0.72950000      -2.64080000      -0.02580000
H       -3.04170000      -3.40480000       0.97230000
H       -3.85960000      -1.34780000       2.32660000
H       -2.73400000       0.76940000       1.22130000
H       -1.04310000      -0.67350000       2.90640000
