18
Properties=species:S:1:pos:R:3 gdb_92438=T pbc="F F F"
O        0.10930000       1.38890000      -0.10240000
C        0.05710000      -0.01150000      -0.02980000
C        0.67180000      -0.61080000       1.29530000
C       -0.51760000      -1.33360000       1.97620000
C       -1.55470000      -0.27330000       2.39600000
N       -2.04810000       0.28600000       1.08690000
C       -1.40490000      -0.53080000       0.02770000
C       -1.22090000      -1.88320000       0.72440000
O       -1.52480000      -2.99750000       0.40440000
H       -0.67300000       1.68670000       0.39240000
H        0.57560000      -0.40490000      -0.90850000
H        1.48320000      -1.31030000       1.07520000
H        1.07560000       0.19790000       1.91050000
H       -0.26690000      -2.06210000       2.74460000
H       -2.37100000      -0.72500000       2.97000000
H       -1.11150000       0.52290000       3.00380000
H       -3.05640000       0.21720000       1.02460000
H       -1.95600000      -0.51180000      -0.90990000
