13
Properties=species:S:1:pos:R:3 gdb_24518=T pbc="F F F"
O       -0.05600000       1.33920000       0.00980000
C        1.24980000       1.72920000      -0.00030000
N        2.13640000       0.79350000      -0.01400000
C        1.37370000      -0.37770000      -0.01350000
C        0.02110000      -0.03000000       0.00120000
C       -0.98410000      -0.98150000       0.00530000
N       -0.65570000      -2.27380000      -0.00520000
C        0.64420000      -2.61930000      -0.01940000
C        1.71310000      -1.72690000      -0.02440000
H        1.41940000       2.79580000       0.00420000
H       -2.03800000      -0.72000000       0.01670000
H        0.83960000      -3.68820000      -0.02730000
H        2.74180000      -2.06510000      -0.03600000
