12
Properties=species:S:1:pos:R:3 gdb_5461=T pbc="F F F"
N        0.05560000       1.38470000       0.15950000
C       -0.00630000       0.01800000       0.05480000
C       -1.13460000      -0.79870000       0.02350000
N       -0.62180000      -2.09880000      -0.01790000
C        0.72080000      -1.99400000      -0.01350000
N        1.12990000      -0.73950000       0.02830000
C       -2.50020000      -0.48910000       0.02230000
N       -3.62800000      -0.20900000       0.01660000
H        0.93670000       1.77690000      -0.13700000
H       -0.75080000       1.89590000      -0.16570000
H       -1.16950000      -2.94240000      -0.04830000
H        1.36770000      -2.85800000      -0.04300000
