20
Properties=species:S:1:pos:R:3 gdb_113329=T pbc="F F F"
C        0.49230000       1.28790000       0.28440000
C       -0.14240000      -0.05300000      -0.07630000
N        0.52040000      -0.60730000      -1.26050000
C        1.67670000      -1.46230000      -1.06820000
C        0.38120000      -2.04310000      -1.56400000
C       -0.42960000      -2.99350000      -0.66340000
O        0.03240000      -3.11020000       0.66990000
C        0.21740000      -2.34550000      -2.96750000
C        0.05820000      -2.64360000      -4.12160000
H        1.54530000       1.16170000       0.55730000
H        0.44330000       1.97880000      -0.56180000
H       -0.02430000       1.73940000       1.13690000
H       -0.10910000      -0.73440000       0.78410000
H       -1.19700000       0.09650000      -0.33700000
H        2.50270000      -1.32190000      -1.76010000
H        1.95690000      -1.71470000      -0.04670000
H       -1.45980000      -2.62860000      -0.59340000
H       -0.46710000      -3.97110000      -1.16090000
H        0.85310000      -3.61290000       0.65540000
H       -0.07760000      -2.88390000      -5.14690000
