15
Properties=species:S:1:pos:R:3 gdb_17809=T pbc="F F F"
O        0.10300000       0.14680000       0.68320000
C        0.13710000       1.20860000       0.02930000
O        1.01070000       1.82280000      -0.58740000
C       -1.23310000       1.94790000      -0.04370000
C       -2.23190000       1.76440000      -1.23280000
C       -2.40460000       0.29840000      -0.73770000
N       -2.46680000       1.14470000       0.53220000
H       -2.54130000       0.78070000       1.48270000
C       -3.36480000       2.11350000      -0.22380000
H       -1.20510000       2.95150000       0.38710000
H       -2.11520000       2.11610000      -2.25090000
H       -3.35260000      -0.20060000      -0.94910000
H       -1.53700000      -0.35620000      -0.73200000
H       -3.38190000       3.11480000       0.20770000
H       -4.36570000       1.71400000      -0.40360000
