13
Properties=species:S:1:pos:R:3 gdb_132935=T pbc="F F F"
F       -0.01390000       0.01270000      -0.33750000
C       -0.03200000       1.31620000      -0.07420000
C       -1.18550000       1.99260000       0.06440000
N       -1.19430000       3.33630000       0.33580000
C       -0.04900000       4.10530000       0.48900000
N       -0.16510000       5.35000000       0.74030000
N        1.11800000       3.36070000       0.33670000
C        1.25680000       1.99050000       0.06000000
O        2.34790000       1.47560000      -0.04630000
H       -2.14870000       1.50820000      -0.03180000
H       -2.05990000       3.84020000       0.43890000
H        0.73700000       5.80920000       0.83130000
H        1.99680000       3.84970000       0.43380000
