20
Properties=species:S:1:pos:R:3 gdb_70025=T pbc="F F F"
C       -0.13210000       1.49730000       0.14820000
C        0.09250000       0.02450000       0.00620000
N       -0.81040000      -0.97450000       0.62110000
C        0.64060000      -0.99320000       0.95530000
C        1.37250000      -1.71630000      -0.19540000
O        0.99830000      -3.01330000      -0.57460000
C       -0.12780000      -2.94540000      -1.45940000
C       -0.09850000      -1.55260000      -2.14020000
C        0.75240000      -0.69090000      -1.19680000
H        0.76550000       2.06170000      -0.12720000
H       -0.94970000       1.83870000      -0.49840000
H       -0.39090000       1.75980000       1.18020000
H       -1.28050000      -0.51630000       1.40180000
H        0.96290000      -0.88710000       1.98510000
H        2.45920000      -1.67970000      -0.07820000
H       -0.02460000      -3.76840000      -2.17480000
H       -1.05470000      -3.07490000      -0.89440000
H        0.37850000      -1.61290000      -3.12280000
H       -1.10940000      -1.16100000      -2.27710000
H        1.48010000      -0.06180000      -1.71180000
