19
Properties=species:S:1:pos:R:3 gdb_126591=T pbc="F F F"
C       -0.00010000       1.55920000       0.09200000
C        0.00800000       0.03090000       0.00170000
C        0.70450000      -0.48830000      -1.25950000
C        0.70930000      -2.02640000      -1.34700000
C        1.41520000      -2.53040000      -2.56050000
N        0.80460000      -2.99310000      -3.64850000
N        1.84290000      -3.27630000      -4.42500000
N        3.02520000      -3.02150000      -3.88660000
N        2.77050000      -2.54380000      -2.69740000
H        1.01930000       1.96020000       0.10010000
H       -0.52290000       2.00370000      -0.76210000
H       -0.50010000       1.90180000       1.00320000
H        0.50500000      -0.38700000       0.88720000
H       -1.02370000      -0.34450000       0.02740000
H        0.20980000      -0.08060000      -2.15040000
H        1.74010000      -0.12820000      -1.28820000
H        1.20380000      -2.43860000      -0.46040000
H       -0.31690000      -2.40590000      -1.35930000
H        1.74510000      -3.66620000      -5.35040000
