14
Properties=species:S:1:pos:R:3 gdb_27013=T pbc="F F F"
C        0.15800000       1.50050000       0.06480000
C       -0.02330000       0.03220000       0.04950000
C       -1.12350000      -0.75140000      -0.02720000
N       -0.65300000      -2.07790000       0.00330000
C        0.71410000      -2.10080000       0.09700000
O        1.47970000      -3.02070000       0.14780000
O        1.09530000      -0.76000000       0.12500000
C       -2.48310000      -0.41090000      -0.11960000
C       -3.65570000      -0.14500000      -0.19940000
H        0.77780000       1.82940000      -0.77690000
H       -0.81510000       1.99080000      -0.00190000
H        0.65530000       1.82650000       0.98520000
H       -1.21410000      -2.91020000      -0.03600000
H       -4.68690000       0.10000000      -0.26940000
