19
Properties=species:S:1:pos:R:3 gdb_24605=T pbc="F F F"
C       -0.20640000       1.41100000       0.02790000
C        1.28740000       1.48970000      -0.38660000
C        1.56280000       0.25190000       0.51350000
C        0.03150000      -0.06160000       0.45330000
C        2.54390000      -0.78650000       0.08610000
C        3.30850000      -0.80700000      -1.04030000
O        4.08000000      -1.92860000      -1.09090000
C        3.80110000      -2.64370000       0.02940000
C        2.87670000      -2.00170000       0.78640000
H       -0.42050000       2.05150000       0.88850000
H       -0.95740000       1.60220000      -0.74160000
H        1.41370000       1.24510000      -1.44570000
H        1.83890000       2.40780000      -0.17100000
H        1.80680000       0.59190000       1.52740000
H       -0.45070000      -0.42200000       1.36530000
H       -0.18790000      -0.75800000      -0.36110000
H        3.42670000      -0.12500000      -1.86540000
H        4.33720000      -3.57230000       0.13730000
H        2.47090000      -2.33900000       1.72800000
