20
Properties=species:S:1:pos:R:3 gdb_93976=T pbc="F F F"
C        0.10440000       1.58750000       0.03320000
C        0.02180000       0.06370000      -0.01550000
C        0.68150000      -0.52930000      -1.27080000
C        0.67190000      -2.06610000      -1.25140000
C        1.15430000      -2.58380000       0.08140000
C        1.68380000      -3.92320000       0.20620000
O        1.78310000      -4.72800000      -0.70290000
C        1.12510000      -1.78120000       1.17670000
N        0.67250000      -0.50320000       1.16610000
H        1.14630000       1.92190000       0.00430000
H       -0.42350000       2.02430000      -0.81910000
H       -0.35750000       1.98220000       0.94560000
H       -1.04050000      -0.23050000      -0.01580000
H        0.16300000      -0.14830000      -2.15620000
H        1.71570000      -0.16690000      -1.31950000
H       -0.33770000      -2.44180000      -1.46530000
H        1.30860000      -2.46790000      -2.04570000
H        2.01310000      -4.19050000       1.23980000
H        1.49680000      -2.13850000       2.13390000
H        0.56490000      -0.01730000       2.04050000
