16
Properties=species:S:1:pos:R:3 gdb_30532=T pbc="F F F"
C        0.01750000       1.48050000       0.02020000
C        0.00240000      -0.00980000      -0.02420000
C       -0.06490000      -0.83890000      -1.09250000
O       -0.05120000      -2.13340000      -0.63570000
C        0.02710000      -2.01150000       0.72840000
N        0.06380000      -3.12250000       1.51920000
C        0.05100000      -4.28780000       0.97920000
N        0.04100000      -5.41190000       1.73200000
N        0.06040000      -0.77640000       1.13540000
H        0.92980000       1.84700000       0.50280000
H       -0.03550000       1.90600000      -0.98550000
H       -0.82880000       1.86160000       0.60170000
H       -0.12550000      -0.70420000      -2.15890000
H        0.02310000      -4.46400000      -0.09950000
H        0.20360000      -6.30850000       1.31100000
H        0.16320000      -5.32110000       2.72820000
