16
Properties=species:S:1:pos:R:3 gdb_33676=T pbc="F F F"
N       -0.05250000      -1.16650000      -0.04610000
C       -0.03400000      -0.00890000      -0.00820000
C       -0.00270000       1.40560000       0.04060000
C       -1.01540000       2.35720000       0.68460000
C       -0.30280000       3.30100000       1.65390000
C        1.21240000       3.07980000       1.37100000
C        1.21060000       2.37590000       0.02240000
O        0.52830000       3.24490000      -0.94420000
C       -0.66440000       2.49520000      -0.77480000
H       -1.99810000       1.96020000       0.91170000
H       -0.59360000       4.33820000       1.46670000
H       -0.56220000       3.06520000       2.68860000
H        1.77580000       4.01540000       1.32960000
H        1.67320000       2.43510000       2.12760000
H        2.16170000       2.01430000      -0.36710000
H       -1.36180000       2.43730000      -1.60170000
