21
Properties=species:S:1:pos:R:3 gdb_53583=T pbc="F F F"
C       -0.07090000       1.46370000      -0.35930000
C       -0.01180000       0.04510000      -0.03710000
C        0.04460000      -1.12880000       0.22320000
C        0.08070000      -2.55320000       0.54340000
C       -1.29380000      -3.20030000       0.45600000
O       -1.73890000      -3.64400000      -0.82690000
C       -1.54290000      -4.63240000       0.20330000
C       -0.42280000      -5.62110000      -0.04200000
C       -2.82490000      -5.24760000       0.72650000
H        0.65130000       1.72470000      -1.14090000
H       -1.06530000       1.74720000      -0.72160000
H        0.15120000       2.08330000       0.51670000
H        0.77400000      -3.06830000      -0.12860000
H        0.46680000      -2.69320000       1.56310000
H       -2.05500000      -2.66020000       1.02310000
H        0.45620000      -5.14650000      -0.47980000
H       -0.12760000      -6.11060000       0.89260000
H       -0.75980000      -6.40180000      -0.73280000
H       -3.20140000      -6.00010000       0.02480000
H       -2.65660000      -5.74280000       1.68910000
H       -3.59730000      -4.48570000       0.85600000
