18
Properties=species:S:1:pos:R:3 gdb_32218=T pbc="F F F"
C       -0.12920000       1.57170000       0.04590000
C        0.04350000       0.04170000       0.01230000
C        0.73640000      -0.50150000       1.24190000
N        2.04530000      -0.75220000       1.14070000
C        2.70320000      -1.20870000       2.20780000
C        2.08920000      -1.44330000       3.43400000
C        0.72980000      -1.18910000       3.55510000
C        0.04040000      -0.70730000       2.44690000
O       -1.29190000      -0.45500000       2.59070000
H        0.84660000       2.06000000       0.11790000
H       -0.62630000       1.92980000      -0.86080000
H       -0.72380000       1.89470000       0.90740000
H       -0.93500000      -0.44220000      -0.12810000
H        0.65050000      -0.24120000      -0.85100000
H        3.76500000      -1.39690000       2.07340000
H        2.66160000      -1.81840000       4.27530000
H        0.19190000      -1.35280000       4.48230000
H       -1.65520000      -0.16720000       1.74750000
