12
Properties=species:S:1:pos:R:3 gdb_345=T pbc="F F F"
C       -0.05020000       1.53150000       0.07540000
C        0.03350000       0.01310000      -0.05330000
C        0.75390000      -0.44400000      -1.31010000
O        1.21610000       0.31930000      -2.12970000
C        0.85790000      -1.88730000      -1.47450000
C        0.93470000      -3.08260000      -1.59430000
H        0.94730000       1.97720000       0.09880000
H       -0.58110000       1.96690000      -0.77490000
H       -0.57640000       1.80910000       0.99270000
H        0.54950000      -0.43970000       0.80440000
H       -0.96280000      -0.44990000      -0.05880000
H        1.01220000      -4.13570000      -1.71720000
