19
Properties=species:S:1:pos:R:3 gdb_31511=T pbc="F F F"
C       -0.32220000       1.51540000      -0.18570000
C        0.13850000       0.05960000       0.00290000
C        0.93400000      -0.46350000      -1.14390000
C        2.21620000      -0.90880000      -1.25540000
C        2.40340000      -1.28860000      -2.62820000
N        3.59000000      -1.73650000      -3.22450000
C        1.21940000      -1.04640000      -3.25830000
N        0.86080000      -1.22810000      -4.59450000
O        0.30910000      -0.52490000      -2.35000000
H        0.53640000       2.18650000      -0.28470000
H       -0.93080000       1.61300000      -1.08880000
H       -0.92100000       1.84730000       0.66810000
H        0.75240000      -0.02750000       0.90530000
H       -0.74210000      -0.57780000       0.16060000
H        2.94560000      -0.95980000      -0.46110000
H        4.06370000      -2.44090000      -2.67250000
H        3.40690000      -2.09920000      -4.15330000
H        0.70210000      -0.35440000      -5.08870000
H        0.02990000      -1.80160000      -4.70300000
