17
Properties=species:S:1:pos:R:3 gdb_34091=T pbc="F F F"
C        0.10250000      -1.16190000       0.02440000
C        0.02010000       0.03670000      -0.00200000
C       -0.11180000       1.47370000      -0.02470000
C       -1.02180000       2.11450000       1.03100000
C       -1.04700000       3.61050000       0.61380000
C       -0.54220000       3.60950000      -0.83000000
C        0.81000000       2.96870000      -1.07060000
O        1.19110000       2.17370000       0.05410000
C       -0.43080000       2.19540000      -1.36610000
H        0.18520000      -2.22070000       0.04400000
H       -2.01760000       1.66170000       0.98000000
H       -0.62240000       1.95390000       2.03520000
H       -2.05580000       4.02720000       0.67650000
H       -0.40110000       4.21260000       1.25900000
H       -0.83550000       4.39780000      -1.51480000
H        1.59730000       3.36730000      -1.69910000
H       -0.85250000       1.77140000      -2.26570000
