21
Properties=species:S:1:pos:R:3 gdb_71899=T pbc="F F F"
C        0.09390000       1.54520000       0.02450000
C       -0.00580000       0.03760000       0.00480000
C        0.44770000      -0.72010000      -1.27690000
C       -0.68440000      -1.74860000      -1.06600000
O       -0.35520000      -2.70520000      -0.03490000
C       -0.73150000      -1.77250000       1.00190000
C        0.38930000      -0.74980000       1.28780000
C       -1.36640000      -0.79700000      -0.03590000
C       -2.76740000      -0.26190000      -0.06160000
H        1.14280000       1.86580000       0.05190000
H       -0.36190000       1.99120000      -0.86700000
H       -0.40200000       1.97070000       0.90450000
H        0.25290000      -0.11420000      -2.16950000
H        1.46920000      -1.10900000      -1.31930000
H       -1.15560000      -2.22290000      -1.93030000
H       -1.24130000      -2.26650000       1.83260000
H        1.40800000      -1.14010000       1.36770000
H        0.15380000      -0.16460000       2.18450000
H       -2.97900000       0.34800000       0.82440000
H       -2.93900000       0.36780000      -0.94230000
H       -3.50080000      -1.07620000      -0.08730000
