20
Properties=species:S:1:pos:R:3 gdb_108118=T pbc="F F F"
C       -0.02300000       1.56580000       0.00920000
C       -0.01150000       0.03340000       0.08710000
C       -1.39310000      -0.56150000       0.08280000
N       -2.35290000      -0.29100000       1.19450000
C       -3.12730000      -1.44400000       0.60630000
C       -3.67020000      -0.76120000      -0.66030000
C       -2.26090000      -0.60630000      -1.25800000
O       -1.87790000      -2.00220000      -1.45740000
C       -1.78350000      -2.04650000      -0.03130000
H        0.99370000       1.96760000       0.04490000
H       -0.48610000       1.91010000      -0.92140000
H       -0.59160000       1.99400000       0.83940000
H        0.54600000      -0.38880000      -0.75770000
H        0.51510000      -0.28730000       0.99610000
H       -1.89950000      -0.61230000       2.05170000
H       -3.79960000      -1.99510000       1.26100000
H       -4.29250000      -1.39110000      -1.29820000
H       -4.17310000       0.17540000      -0.41550000
H       -2.08160000       0.02730000      -2.12520000
H       -1.27970000      -2.91540000       0.39390000
