17
Properties=species:S:1:pos:R:3 gdb_110404=T pbc="F F F"
C        0.18980000       1.32910000       0.17870000
O       -0.28380000       0.05980000      -0.22180000
C        0.46640000      -0.51780000      -1.24850000
C        1.72040000      -1.34750000      -0.88470000
C        0.83680000      -2.53750000      -0.33150000
C        0.07450000      -1.95690000      -1.58880000
C        1.51620000      -2.26590000      -2.15300000
C        1.59010000      -3.49520000      -1.24920000
O        2.01890000      -4.60790000      -1.26040000
H        1.20040000       1.27460000       0.60930000
H        0.21010000       2.03680000      -0.66410000
H       -0.49720000       1.70550000       0.93970000
H        0.57990000       0.18000000      -2.09300000
H        2.68750000      -1.04340000      -0.48530000
H        0.44220000      -2.64140000       0.67490000
H       -0.85970000      -2.34310000      -1.99440000
H        1.87500000      -2.07100000      -3.16130000
