15
Properties=species:S:1:pos:R:3 gdb_23330=T pbc="F F F"
O       -0.09900000       1.36810000      -0.09210000
N        0.05620000      -0.03500000      -0.07180000
C       -1.05740000      -0.61500000      -0.01010000
C       -2.56620000      -0.40020000       0.02830000
C       -2.61740000      -1.54440000      -1.04500000
C       -1.56000000      -2.04430000       0.00030000
C       -2.58660000      -1.56140000       1.09650000
C       -2.11350000      -1.29750000       2.44540000
N       -1.75740000      -1.10160000       3.52740000
H        0.81620000       1.66890000      -0.08970000
H       -3.13120000       0.52670000       0.06340000
H       -3.55010000      -2.11290000      -1.08330000
H       -2.24040000      -1.29790000      -2.03690000
H       -0.99250000      -2.97140000       0.00450000
H       -3.51870000      -2.13150000       1.11940000
