21
Properties=species:S:1:pos:R:3 gdb_87451=T pbc="F F F"
C       -0.02520000       1.57980000      -0.05790000
C       -0.00380000       0.06630000      -0.01640000
C        1.31160000      -0.68950000      -0.21960000
C        0.64340000      -0.66990000       1.10670000
C        1.13030000      -0.30490000       2.51340000
C       -0.25480000      -0.70420000       3.07430000
C        0.21200000      -1.79600000       2.06770000
C       -0.35240000      -3.14990000       1.77740000
O        1.56980000      -1.71000000       2.68850000
H        0.88220000       1.99700000       0.39120000
H       -0.08430000       1.94720000      -1.08830000
H       -0.88300000       1.98560000       0.49020000
H       -0.87970000      -0.40910000      -0.45450000
H        1.29330000      -1.60620000      -0.80120000
H        2.21370000      -0.09900000      -0.35130000
H        1.81340000       0.47890000       2.83920000
H       -0.25240000      -1.01640000       4.12010000
H       -1.11930000      -0.09220000       2.80410000
H       -1.34930000      -3.05870000       1.33420000
H        0.29180000      -3.69190000       1.07820000
H       -0.43560000      -3.73620000       2.69730000
