18
Properties=species:S:1:pos:R:3 gdb_9878=T pbc="F F F"
C        0.01780000       1.59530000      -0.29640000
C       -0.06410000       0.09340000      -0.10620000
C       -1.39140000      -0.45010000       0.39950000
C       -1.63290000      -0.09130000       1.88160000
C       -2.87460000      -0.65900000       2.39850000
N       -3.86300000      -1.11290000       2.78950000
C        0.77730000      -0.77500000      -0.97020000
N        1.10170000      -0.61290000       0.46070000
H        0.99260000       1.88570000      -0.70070000
H       -0.75070000       1.94780000      -0.99310000
H       -0.12160000       2.13320000       0.64830000
H       -2.21430000      -0.06830000      -0.21490000
H       -1.39480000      -1.53920000       0.30480000
H       -0.79270000      -0.46590000       2.47640000
H       -1.66990000       0.99460000       2.02240000
H        0.43170000      -1.76620000      -1.25100000
H        1.41780000      -0.29630000      -1.70650000
H        1.88440000       0.02850000       0.56470000
