15
Properties=species:S:1:pos:R:3 gdb_32046=T pbc="F F F"
C       -0.05470000       1.34970000      -0.05410000
O        0.04070000      -0.07790000       0.05890000
C        0.67370000      -0.54010000       1.12310000
N        1.18910000       0.21220000       2.02860000
C        1.81100000      -0.46200000       3.06620000
C        1.88810000      -1.80510000       3.15090000
C        1.29910000      -2.62180000       2.11720000
N        1.29680000      -3.88510000       2.06910000
O        0.67710000      -1.87840000       1.08210000
H        0.94090000       1.79640000      -0.09930000
H       -0.60130000       1.52660000      -0.97980000
H       -0.59300000       1.76510000       0.80050000
H        2.24490000       0.17640000       3.82900000
H        2.37750000      -2.31580000       3.96800000
H        0.81560000      -4.22340000       1.23620000
