18
Properties=species:S:1:pos:R:3 gdb_66958=T pbc="F F F"
C        0.03330000       1.49220000       0.09330000
C        0.01040000      -0.00310000       0.00040000
C       -0.96120000      -0.87890000       0.81000000
C       -1.08910000      -2.22900000       0.10810000
C        0.41690000      -2.07080000      -0.22760000
C        0.53530000      -1.04080000       0.96670000
C        0.47320000      -0.84750000      -1.19900000
C       -0.32250000      -0.87060000      -2.42340000
N       -0.96600000      -0.88420000      -3.38430000
H        1.01840000       1.89430000      -0.16830000
H       -0.70350000       1.94140000      -0.58190000
H       -0.20200000       1.82310000       1.11000000
H       -1.65180000      -0.41520000       1.50290000
H       -1.24630000      -3.03460000       0.83000000
H       -1.78730000      -2.33630000      -0.72820000
H        1.05470000      -2.93100000      -0.41370000
H        1.19820000      -0.96290000       1.81590000
H        1.51040000      -0.60280000      -1.44750000
