20
Properties=species:S:1:pos:R:3 gdb_110452=T pbc="F F F"
C        0.03440000       1.54590000       0.07520000
N        0.12570000       0.09310000       0.02280000
C        0.77040000      -0.54660000      -1.11710000
C        2.30040000      -0.65820000      -0.85250000
C        1.30680000      -1.66390000      -0.29210000
C        1.11610000      -0.62080000       0.87880000
C        2.53270000      -0.05360000       0.53120000
C        3.63700000      -0.73600000       1.31840000
O        3.51420000      -0.32270000       2.67510000
H        0.96440000       2.08090000      -0.17130000
H       -0.73750000       1.87470000      -0.62920000
H       -0.28060000       1.84780000       1.07960000
H        0.34920000      -0.55590000      -2.11550000
H        3.01310000      -0.80210000      -1.65590000
H        1.20550000      -2.73610000      -0.36580000
H        0.83790000      -0.81130000       1.91340000
H        2.66150000       1.03100000       0.61440000
H        3.54370000      -1.82960000       1.22250000
H        4.61970000      -0.45270000       0.90810000
H        4.22280000      -0.73210000       3.17950000
