18
Properties=species:S:1:pos:R:3 gdb_54397=T pbc="F F F"
N       -0.04480000       1.32250000       0.12170000
C        0.07010000      -0.03890000       0.01700000
O        1.14570000      -0.59790000      -0.08130000
C       -1.24010000      -0.78520000       0.03230000
C       -2.11980000      -0.93350000      -1.27130000
C       -2.74380000      -2.09450000      -0.42540000
C       -1.28290000      -2.34710000       0.08990000
C       -3.31910000      -1.29640000       0.75330000
C       -2.34400000      -0.43410000       1.05090000
H        0.78650000       1.87310000      -0.02290000
H       -0.93710000       1.77820000       0.03590000
H       -2.76940000      -0.09560000      -1.53630000
H       -1.54370000      -1.27870000      -2.13490000
H       -3.35050000      -2.87910000      -0.87540000
H       -0.62420000      -2.81400000      -0.64600000
H       -1.16670000      -2.80900000       1.07190000
H       -4.28420000      -1.43960000       1.21840000
H       -2.27750000       0.31610000       1.82600000
