24
Properties=species:S:1:pos:R:3 gdb_102807=T pbc="F F F"
C        0.01620000       1.59150000       0.23140000
C        0.09990000       0.07050000       0.07730000
C        0.76180000      -0.64250000       1.27160000
N        0.04290000      -0.32490000       2.50550000
C        0.58890000       0.34000000       3.55810000
O        1.73150000       0.74260000       3.62410000
C        0.88140000      -2.17770000       1.08980000
C        1.65100000      -2.55210000      -0.18670000
C        1.54310000      -2.83620000       2.30920000
H        1.01060000       2.02920000       0.36700000
H       -0.43440000       2.04650000      -0.65590000
H       -0.58810000       1.87490000       1.09760000
H       -0.90650000      -0.34620000      -0.07660000
H        0.66680000      -0.16500000      -0.82800000
H        1.76560000      -0.22980000       1.42150000
H       -0.92560000      -0.59890000       2.57620000
H       -0.14580000       0.47830000       4.37740000
H       -0.14090000      -2.57750000       0.99780000
H        2.64560000      -2.09010000      -0.19250000
H        1.79280000      -3.63610000      -0.23870000
H        1.13200000      -2.24650000      -1.09850000
H        0.99360000      -2.63220000       3.23100000
H        1.59330000      -3.92180000       2.17900000
H        2.56600000      -2.46700000       2.44480000
