15
Properties=species:S:1:pos:R:3 gdb_2218=T pbc="F F F"
C       -0.04170000       1.58600000       0.02260000
C        0.02020000       0.08780000       0.02030000
C       -1.17920000      -0.85540000       0.01970000
O       -0.47570000      -1.83220000       0.84490000
C        0.63790000      -0.93470000       0.97650000
C        1.23660000      -0.73870000      -0.37660000
O        1.20900000      -1.75120000      -1.33180000
H        0.94060000       2.02060000       0.23330000
H       -0.36640000       1.96900000      -0.95220000
H       -0.74070000       1.96060000       0.77930000
H       -2.04770000      -0.46420000       0.56090000
H       -1.49170000      -1.27330000      -0.94390000
H        1.12480000      -0.87560000       1.94430000
H        2.16080000      -0.16680000      -0.40820000
H        0.71620000      -2.47960000      -0.92900000
