20
Properties=species:S:1:pos:R:3 gdb_94382=T pbc="F F F"
O        0.56600000       0.68770000      -0.79290000
C        0.15580000      -0.32790000       0.08890000
C       -0.00400000      -0.04740000       1.60470000
C       -1.20810000      -1.03000000       1.59670000
C       -1.31150000      -0.84360000       0.06300000
C       -2.46200000       0.05020000      -0.47900000
N       -3.00010000      -1.05660000      -1.34700000
C       -1.89970000      -1.40290000      -2.26600000
C       -1.83520000      -1.91420000      -0.88080000
H        0.04490000       1.47540000      -0.60430000
H        0.84510000      -1.16160000      -0.08360000
H        0.84210000      -0.25790000       2.26180000
H       -0.33380000       0.98350000       1.77740000
H       -0.90380000      -2.04790000       1.85940000
H       -2.08520000      -0.76500000       2.19180000
H       -3.19800000       0.32160000       0.28180000
H       -2.18520000       0.94650000      -1.04740000
H       -2.20540000      -2.09560000      -3.04400000
H       -1.20620000      -0.62730000      -2.58320000
H       -1.96400000      -2.96420000      -0.63350000
