17
Properties=species:S:1:pos:R:3 gdb_19621=T pbc="F F F"
C       -0.10620000       1.48650000      -0.04780000
C        1.23600000       0.76450000       0.00130000
C       -0.04180000       0.00060000       0.05530000
C       -0.48430000      -0.99860000       1.08760000
C       -1.73960000      -1.66730000       0.47700000
C       -1.94010000      -0.98630000      -0.86640000
N       -0.42830000      -0.94790000      -1.03800000
C       -0.36330000      -2.06400000       0.03690000
H       -0.41910000       2.05760000       0.82010000
H       -0.40730000       1.91100000      -1.00030000
H        1.80690000       0.71080000      -0.91920000
H        1.83170000       0.84670000       0.90470000
H       -0.25850000      -1.06220000       2.14470000
H       -2.43560000      -2.22450000       1.09210000
H       -2.37110000      -1.65340000      -1.61740000
H       -2.42290000      -0.00440000      -0.91330000
H        0.18340000      -2.99210000      -0.04520000
