15
Properties=species:S:1:pos:R:3 gdb_52747=T pbc="F F F"
C       -0.04110000       1.47390000       0.04320000
C       -0.01500000       0.01950000       0.02810000
C        0.02230000      -1.18240000       0.01340000
C        0.03400000      -2.64410000      -0.00070000
C       -1.41620000      -3.20400000      -0.15890000
C       -1.48240000      -4.65390000      -0.00180000
N       -1.52920000      -5.79890000       0.14270000
C        0.91090000      -3.15760000      -1.06710000
N        1.59230000      -3.55910000      -1.90820000
H        0.61000000       1.88290000      -0.73630000
H       -1.05350000       1.85220000      -0.13270000
H        0.30140000       1.86450000       1.00700000
H        0.43200000      -3.01790000       0.95180000
H       -2.04470000      -2.73010000       0.60030000
H       -1.81060000      -2.91900000      -1.13810000
