19
Properties=species:S:1:pos:R:3 gdb_117524=T pbc="F F F"
C       -0.11790000       1.42920000      -0.02450000
O        0.03740000       0.03010000       0.00740000
C        0.59720000      -0.48100000      -1.17880000
C        0.67480000      -2.00700000      -1.03880000
C       -0.64350000      -2.62780000      -0.95540000
C       -1.72940000      -3.14220000      -0.92580000
C        1.51890000      -2.63010000      -2.17910000
C        1.65180000      -4.13730000      -2.17880000
O        2.05370000      -1.92860000      -3.00310000
H        0.84600000       1.94480000      -0.16090000
H       -0.79320000       1.74610000      -0.83450000
H       -0.54820000       1.73110000       0.93330000
H       -0.01240000      -0.21580000      -2.05570000
H        1.60780000      -0.08320000      -1.34860000
H        1.21510000      -2.22120000      -0.10360000
H       -2.69230000      -3.58770000      -0.87940000
H        0.67340000      -4.59540000      -2.35160000
H        2.35050000      -4.44240000      -2.95820000
H        1.99800000      -4.49260000      -1.20210000
