24
Properties=species:S:1:pos:R:3 gdb_118871=T pbc="F F F"
C       -0.09900000       1.62040000       0.08240000
C       -0.02390000       0.09050000       0.08850000
C       -1.39280000      -0.56740000      -0.13080000
C       -1.40390000      -2.09640000      -0.04190000
C       -0.57150000      -2.76630000      -1.13580000
C       -1.10990000      -2.73240000       1.38010000
C       -2.50120000      -3.36810000       1.34530000
N       -3.46540000      -2.24150000       1.26520000
C       -2.80810000      -2.74010000       0.03440000
H        0.88600000       2.07110000       0.24120000
H       -0.48570000       1.99370000      -0.87270000
H       -0.76540000       1.98590000       0.87150000
H        0.68220000      -0.23750000      -0.68430000
H        0.39430000      -0.24840000       1.04550000
H       -2.10120000      -0.18340000       0.61140000
H       -1.78150000      -0.26860000      -1.11570000
H        0.49180000      -2.52760000      -1.03500000
H       -0.67260000      -3.85640000      -1.09320000
H       -0.89630000      -2.43910000      -2.13090000
H       -0.29170000      -3.45590000       1.35070000
H       -0.94970000      -2.03250000       2.20440000
H       -2.80770000      -4.32550000       1.74890000
H       -4.40170000      -2.64520000       1.28560000
H       -3.39790000      -3.10740000      -0.79870000
