18
Properties=species:S:1:pos:R:3 gdb_38820=T pbc="F F F"
C        0.00570000       1.45070000       0.08110000
C        1.35070000       0.75640000      -0.04780000
C        1.72730000       0.14040000       1.30950000
C        0.43220000      -0.74300000       1.25820000
C        0.68650000      -2.22780000       0.94620000
N       -0.20930000      -2.79810000      -0.05780000
C       -0.75100000      -2.03680000      -0.90530000
O       -0.67240000      -0.68000000      -1.03370000
C        0.03970000      -0.02910000      -0.02720000
H       -0.28450000       1.94630000       1.00610000
H       -0.32830000       1.94810000      -0.82440000
H        2.02720000       0.98320000      -0.86200000
H        2.64000000      -0.45970000       1.29170000
H        1.79200000       0.85180000       2.13880000
H       -0.27240000      -0.63670000       2.08960000
H        1.71300000      -2.36740000       0.58180000
H        0.60300000      -2.83150000       1.85570000
H       -1.40000000      -2.43310000      -1.68310000
