15
Properties=species:S:1:pos:R:3 gdb_64879=T pbc="F F F"
O        0.16540000       1.46500000      -0.28850000
C        0.01570000       0.10040000      -0.00410000
C        0.14560000      -0.31070000       1.51170000
N       -1.26720000      -0.67850000       1.47590000
C       -1.49500000      -0.28030000       0.09090000
C       -2.16880000      -1.01360000       2.42920000
O       -3.35600000      -1.14370000       2.22260000
C        0.81520000      -0.73060000      -0.91120000
N        1.47790000      -1.36090000      -1.61770000
H        1.10450000       1.67550000      -0.35190000
H        0.83290000      -1.13510000       1.72360000
H        0.38060000       0.55280000       2.14340000
H       -2.14070000       0.59470000      -0.02620000
H       -1.83130000      -1.08550000      -0.56640000
H       -1.69140000      -1.16600000       3.41840000
