19
Properties=species:S:1:pos:R:3 gdb_93977=T pbc="F F F"
C       -0.11380000       1.51130000      -0.09570000
C        0.02080000       0.00010000       0.09330000
C        0.42670000      -0.69820000      -1.21350000
N        0.72820000      -2.08960000      -0.94030000
C        1.12960000      -2.49600000       0.29240000
C        1.39500000      -3.96260000       0.41680000
O        1.27140000      -4.73660000      -0.50290000
N        1.30310000      -1.78140000       1.34630000
C        1.03330000      -0.35470000       1.19900000
H        0.84080000       1.95640000      -0.39970000
H       -0.85560000       1.75510000      -0.86370000
H       -0.42540000       1.99690000       0.83440000
H       -0.95190000      -0.41030000       0.39470000
H       -0.38600000      -0.64040000      -1.94610000
H        1.29540000      -0.18480000      -1.65480000
H        0.65380000      -2.80370000      -1.64790000
H        1.71410000      -4.26390000       1.43190000
H        1.98620000       0.16330000       1.00540000
H        0.67760000       0.02730000       2.16300000
