19
Properties=species:S:1:pos:R:3 gdb_74339=T pbc="F F F"
N       -0.11670000       1.32460000      -0.02350000
C       -0.12170000      -0.04300000      -0.00020000
N       -1.10540000      -0.80690000      -0.27490000
C       -0.63940000      -2.18090000      -0.05400000
C        0.81060000      -2.00560000       0.49220000
O        1.05840000      -0.58580000       0.40090000
C       -1.53390000      -2.97630000       0.88270000
C       -2.19890000      -2.31960000       2.06540000
C       -3.02410000      -2.77320000       0.88430000
H        0.78880000       1.75110000      -0.14180000
H       -0.85630000       1.73120000      -0.57420000
H       -0.61700000      -2.70430000      -1.02080000
H        0.89840000      -2.30230000       1.54240000
H        1.57320000      -2.52350000      -0.09490000
H       -1.18940000      -3.99750000       1.03100000
H       -2.26800000      -2.87620000       2.99350000
H       -2.06230000      -1.25060000       2.18390000
H       -3.41280000      -1.99870000       0.23380000
H       -3.66220000      -3.64250000       0.99990000
