21
Properties=species:S:1:pos:R:3 gdb_91946=T pbc="F F F"
C       -0.43010000       1.48740000       0.04520000
C        0.01490000       0.01830000      -0.00010000
C        0.83130000      -0.35060000      -1.27790000
C        2.28110000      -0.53110000      -0.83990000
C        2.93450000       0.59120000      -0.07840000
C        2.32440000      -0.57020000       0.67310000
C        0.91620000      -0.41770000       1.16950000
C        0.57140000      -0.22620000       2.58290000
O        0.43880000      -1.51290000       1.97200000
H        0.41390000       2.18260000       0.00760000
H       -1.07760000       1.71270000      -0.80860000
H       -0.99670000       1.70390000       0.95600000
H       -0.88490000      -0.60150000       0.05330000
H        0.46570000      -1.29430000      -1.69570000
H        0.72050000       0.40870000      -2.06010000
H        2.91540000      -1.18340000      -1.42950000
H        4.01820000       0.63560000      -0.09530000
H        2.45880000       1.56470000      -0.03900000
H        2.96850000      -1.24490000       1.22480000
H        1.36530000      -0.13810000       3.32470000
H       -0.36520000       0.25750000       2.85940000
