18
Properties=species:S:1:pos:R:3 gdb_66806=T pbc="F F F"
C        0.04300000       1.52300000       0.01450000
C       -0.03100000       0.03010000      -0.06360000
C        0.67260000      -0.99520000      -0.90150000
C       -0.54380000      -1.95140000      -0.83710000
C       -0.38270000      -2.84170000       0.41910000
C       -1.10880000      -1.80300000       1.27340000
C        0.39620000      -1.89730000       1.29750000
N        1.02540000      -0.81560000       0.52030000
C       -1.28730000      -0.88510000       0.04210000
H        1.07250000       1.86300000      -0.12720000
H       -0.58530000       1.99130000      -0.75090000
H       -0.29820000       1.87900000       0.99400000
H        1.44440000      -0.91120000      -1.65980000
H       -0.98940000      -2.34730000      -1.74580000
H       -0.35390000      -3.92220000       0.48930000
H       -1.75480000      -1.92180000       2.13460000
H        0.92770000      -2.24740000       2.17220000
H       -2.26910000      -0.50910000      -0.23460000
