18
Properties=species:S:1:pos:R:3 gdb_61004=T pbc="F F F"
C       -0.07280000       1.42410000      -0.52140000
C        0.10700000      -0.02910000      -0.06370000
C        1.05180000      -0.10780000       1.12270000
O        0.87760000      -0.77790000       2.10730000
N       -1.19490000      -0.59150000       0.26950000
C       -1.90980000      -1.35490000      -0.72500000
C       -1.34400000      -2.04210000       0.48630000
C       -0.19600000      -2.97440000       0.29290000
O        0.60300000      -2.90610000      -0.61380000
H        0.89690000       1.88370000      -0.73580000
H       -0.67270000       1.46100000      -1.43430000
H       -0.58260000       2.01050000       0.24790000
H        0.62300000      -0.59200000      -0.86150000
H        1.97380000       0.50420000       0.99570000
H       -2.98170000      -1.18580000      -0.78030000
H       -1.41100000      -1.57140000      -1.66830000
H       -1.99500000      -2.29000000       1.31990000
H       -0.11420000      -3.76550000       1.06710000
