16
Properties=species:S:1:pos:R:3 gdb_47691=T pbc="F F F"
N       -0.01140000       1.26080000       0.53430000
C        0.03800000       0.14650000      -0.06500000
N       -1.07470000      -0.28940000      -0.78540000
C       -1.39020000      -1.59070000      -1.17910000
N       -2.57220000      -2.02330000      -1.05150000
O       -0.38720000      -2.31050000      -1.75130000
C        0.72810000      -1.58320000      -2.26470000
C        1.71010000      -1.24960000      -1.15360000
O        1.08840000      -0.71620000       0.01890000
H        0.87840000       1.44530000       0.99230000
H       -1.89380000       0.27040000      -0.59450000
H       -2.66400000      -2.92920000      -1.50810000
H        1.21210000      -2.23790000      -2.99430000
H        0.38350000      -0.68250000      -2.78150000
H        2.21490000      -2.15470000      -0.80750000
H        2.46740000      -0.54680000      -1.52710000
