18
Properties=species:S:1:pos:R:3 gdb_30263=T pbc="F F F"
C       -0.61780000       1.40570000      -0.03040000
C        0.19920000       0.13100000       0.02300000
C        1.11530000      -0.12440000      -1.20830000
N        2.25730000      -0.71870000      -0.55110000
C        3.47920000      -1.27380000      -0.88560000
C        4.19130000      -1.38820000       0.28490000
C        3.40350000      -0.86740000       1.36820000
C        2.23280000      -0.46080000       0.78750000
O        1.09510000       0.18110000       1.16250000
H        0.03350000       2.27510000      -0.15820000
H       -1.32300000       1.36920000      -0.86690000
H       -1.18830000       1.53210000       0.89310000
H       -0.45560000      -0.73970000       0.16340000
H        0.64540000      -0.79730000      -1.93080000
H        1.38120000       0.81080000      -1.72030000
H        3.70930000      -1.56690000      -1.89610000
H        5.17520000      -1.82350000       0.37600000
H        3.67020000      -0.81130000       2.41000000
