21
Properties=species:S:1:pos:R:3 gdb_76644=T pbc="F F F"
C        0.02490000       1.53990000      -0.19900000
C        0.04920000       0.03410000      -0.04030000
C        1.34220000      -0.74770000      -0.14360000
O        2.56490000      -0.12910000      -0.39360000
C        0.63800000      -0.64290000       1.19430000
C        1.20960000       0.11510000       2.36600000
C        2.17810000      -0.64680000       3.30400000
C        3.16920000       0.48980000       3.00020000
O        2.26440000       1.08020000       2.03210000
H        0.92130000       2.01320000       0.20640000
H       -0.04540000       1.81090000      -1.25790000
H       -0.83950000       1.97600000       0.31380000
H       -0.82570000      -0.46410000      -0.45250000
H        1.29960000      -1.70740000      -0.65140000
H        2.69930000       0.52360000       0.31130000
H        0.11880000      -1.53650000       1.53780000
H        0.41210000       0.63750000       2.91180000
H        1.86050000      -0.75030000       4.34220000
H        2.48180000      -1.61970000       2.91440000
H        3.36190000       1.17970000       3.82950000
H        4.12000000       0.20300000       2.54010000
