17
Properties=species:S:1:pos:R:3 gdb_24590=T pbc="F F F"
C       -0.21880000       0.91720000       0.38070000
C        0.96600000       1.19480000      -0.56170000
C        1.80960000       0.46410000       0.51980000
O        0.60760000       0.10600000       1.25120000
C        2.58520000      -0.74800000       0.13650000
N        3.81810000      -0.79110000      -0.32140000
C        4.06760000      -2.12350000      -0.56010000
C        2.97710000      -2.88730000      -0.23350000
N        2.02950000      -1.98960000       0.20270000
H       -0.60830000       1.79740000       0.90630000
H       -1.05960000       0.34720000      -0.02930000
H        0.92410000       0.66470000      -1.51380000
H        1.22050000       2.24020000      -0.73650000
H        2.45010000       1.14310000       1.09520000
H        5.01840000      -2.45650000      -0.94770000
H        2.79190000      -3.94800000      -0.26050000
H        1.11870000      -2.17580000       0.58920000
