15
Properties=species:S:1:pos:R:3 gdb_56969=T pbc="F F F"
O       -0.20930000       1.38260000      -0.17770000
C       -0.05710000      -0.01840000      -0.06250000
C        0.65840000      -0.59580000      -1.20870000
C        1.26470000      -1.06440000      -2.13400000
C        0.66370000      -0.40580000       1.23400000
O        1.59940000       0.53860000       1.72450000
C        0.44950000       0.25250000       2.54440000
C       -0.53770000       1.35480000       2.79290000
O       -1.29700000       1.31040000       3.72840000
H        0.67040000       1.76250000      -0.05050000
H       -1.07300000      -0.43140000      -0.03280000
H        1.78980000      -1.47500000      -2.96130000
H        0.99970000      -1.44290000       1.26120000
H        0.65810000      -0.34200000       3.43340000
H       -0.51650000       2.19370000       2.07590000
