18
Properties=species:S:1:pos:R:3 gdb_55415=T pbc="F F F"
C        0.04970000       1.49940000       0.03460000
C        0.03950000      -0.00820000      -0.02360000
O        1.04820000      -0.67580000      -0.11340000
N       -1.20070000      -0.66390000       0.03670000
C       -1.23270000      -2.13280000      -0.00270000
C       -2.66300000      -2.47510000       0.44940000
C       -3.48040000      -1.25180000       0.01880000
C       -2.48210000      -0.09790000       0.04770000
O       -2.74180000       1.08150000       0.05890000
H        1.09070000       1.82090000       0.00320000
H       -0.51050000       1.92650000      -0.80020000
H       -0.43920000       1.86240000       0.94140000
H       -1.02560000      -2.48240000      -1.02100000
H       -0.45450000      -2.53720000       0.64480000
H       -3.01640000      -3.41210000       0.01580000
H       -2.69140000      -2.57990000       1.53840000
H       -3.84610000      -1.34520000      -1.01140000
H       -4.34070000      -1.02210000       0.64930000
