19
Properties=species:S:1:pos:R:3 gdb_11992=T pbc="F F F"
C       -0.43560000       1.53560000       0.34490000
C       -0.12530000       0.04990000       0.23280000
C        0.28490000      -0.50100000      -1.14090000
N        1.58600000       0.13200000      -1.47440000
C        1.54670000      -1.06430000      -0.60070000
C        1.23140000      -0.55990000       0.81390000
C        2.23180000       0.37780000       1.46780000
O        0.98420000      -1.70420000       1.61810000
H        0.33610000       2.13210000      -0.14790000
H       -1.39600000       1.76670000      -0.12970000
H       -0.50290000       1.85460000       1.39100000
H       -0.93450000      -0.55790000       0.64860000
H       -0.36140000      -0.87620000      -1.92550000
H        1.84900000      -0.18650000      -2.40610000
H        2.07820000      -1.97470000      -0.84940000
H        2.50760000       1.18450000       0.78570000
H        1.81370000       0.82590000       2.37810000
H        3.13400000      -0.17640000       1.74580000
H        0.69900000      -1.39740000       2.48550000
