17
Properties=species:S:1:pos:R:3 gdb_61195=T pbc="F F F"
N       -0.04990000       1.55540000       0.18370000
C       -0.01650000       0.11120000       0.02610000
C       -1.45120000      -0.45190000       0.14000000
C       -2.03360000      -0.23540000       1.46120000
N       -2.49770000      -0.09730000       2.51000000
C        0.60640000      -0.36750000      -1.31530000
O       -0.21880000       0.16560000      -2.34930000
C        1.99550000       0.07370000      -1.44160000
C        3.13460000       0.44130000      -1.55610000
H        0.89580000       1.91460000       0.27050000
H       -0.44150000       1.96890000      -0.65900000
H        0.58960000      -0.30980000       0.83450000
H       -2.08490000       0.01880000      -0.61810000
H       -1.45440000      -1.52800000      -0.06790000
H        0.58520000      -1.46960000      -1.34270000
H        0.25070000       0.08390000      -3.18520000
H        4.14390000       0.75800000      -1.65760000
