21
Properties=species:S:1:pos:R:3 gdb_120306=T pbc="F F F"
C       -0.25090000       1.36840000       0.02280000
C       -0.50170000      -0.06960000      -0.39550000
O       -1.14400000      -0.74020000       0.68340000
C       -1.41430000      -2.07530000       0.42610000
C       -2.69000000      -2.68060000       0.94350000
C       -3.81480000      -1.67680000       0.72090000
O       -3.47860000      -1.53520000      -0.68590000
C       -2.45480000      -2.52830000      -0.56440000
C       -2.27470000      -3.47580000      -1.70500000
H        0.24080000       1.91970000      -0.78440000
H       -1.19520000       1.86730000       0.25840000
H        0.38820000       1.40680000       0.90970000
H       -1.14170000      -0.11220000      -1.28740000
H        0.44800000      -0.57320000      -0.63890000
H       -0.54890000      -2.74100000       0.48640000
H       -2.72660000      -3.54870000       1.58870000
H       -4.81500000      -2.10910000       0.83110000
H       -3.74680000      -0.72690000       1.25910000
H       -1.99060000      -2.93070000      -2.61250000
H       -1.48520000      -4.19970000      -1.48340000
H       -3.20030000      -4.02140000      -1.91450000
