19
Properties=species:S:1:pos:R:3 gdb_114403=T pbc="F F F"
C       -0.35940000       1.39760000       0.27590000
C       -0.08880000      -0.09630000       0.06190000
C        0.86910000      -0.65250000       1.09690000
O        0.34080000      -0.59680000       2.45750000
C        0.75260000      -1.95540000       2.72430000
C        1.14920000      -2.16510000       1.22690000
C       -0.06160000      -3.11740000       1.02210000
C       -0.44670000      -2.91020000       2.50560000
O       -1.31590000      -3.33290000       3.20650000
H        0.56260000       1.98300000       0.19150000
H       -1.06850000       1.77890000      -0.46430000
H       -0.77820000       1.57130000       1.27100000
H       -1.03420000      -0.64800000       0.09940000
H        0.34480000      -0.26710000      -0.93250000
H        1.81270000      -0.08700000       1.06270000
H        1.39430000      -2.05470000       3.60370000
H        2.12190000      -2.52890000       0.90370000
H       -0.81450000      -2.85750000       0.27490000
H        0.24350000      -4.15510000       0.84850000
