20
Properties=species:S:1:pos:R:3 gdb_81265=T pbc="F F F"
C        0.05860000       1.59670000       0.02420000
C        0.05350000       0.07310000      -0.06790000
C        0.92640000      -0.55440000      -1.17850000
C        0.97090000      -2.05490000      -0.78340000
C        1.82910000      -1.45590000       0.36840000
N        2.29800000      -0.35610000      -0.57000000
C        3.43500000      -0.69630000      -1.41410000
C        0.78260000      -0.61950000       1.11310000
O        0.58570000      -0.50440000       2.29070000
H        1.08260000       1.97410000      -0.03340000
H       -0.52800000       2.04340000      -0.78500000
H       -0.37310000       1.91710000       0.97680000
H       -0.97670000      -0.30040000      -0.11650000
H        0.77410000      -0.21480000      -2.20400000
H        0.03310000      -2.56130000      -0.53370000
H        1.55410000      -2.67290000      -1.46540000
H        2.56310000      -2.00640000       0.95420000
H        3.38580000      -1.67780000      -1.91410000
H        3.53470000       0.07080000      -2.18900000
H        4.34520000      -0.67480000      -0.80650000
