14
Properties=species:S:1:pos:R:3 gdb_27368=T pbc="F F F"
C       -0.02010000       1.44070000       0.11290000
C       -0.00550000      -0.03810000      -0.06530000
N       -0.06480000      -0.63630000      -1.17570000
C       -0.04080000      -2.05010000      -1.19730000
N       -0.10130000      -2.63960000      -2.32140000
N        0.04990000      -2.73370000       0.03660000
C        0.10400000      -2.02760000       1.09230000
O        0.19080000      -2.53800000       2.31520000
O        0.08460000      -0.68220000       1.17050000
H        0.88980000       1.76800000       0.62620000
H       -0.08980000       1.91900000      -0.86250000
H       -0.86940000       1.73710000       0.73680000
H       -0.07300000      -3.64750000      -2.15940000
H        0.20130000      -3.50000000       2.20680000
