15
Properties=species:S:1:pos:R:3 gdb_13754=T pbc="F F F"
N       -0.02540000       1.25700000       0.43060000
C        0.00830000       0.10090000      -0.29170000
O        0.97340000      -0.22200000      -0.96220000
C       -1.24890000      -0.71970000      -0.21530000
C       -1.51220000      -1.70000000      -1.31530000
C       -1.16670000      -2.23390000       0.05510000
C        0.12980000      -2.93010000       0.28000000
O        0.24830000      -3.84210000       1.06380000
H        0.81500000       1.81060000       0.46980000
H       -0.76790000       1.46620000       1.07430000
H       -2.10560000      -0.23660000       0.24350000
H       -2.52850000      -1.83030000      -1.66680000
H       -0.73580000      -1.76120000      -2.07040000
H       -1.97410000      -2.63720000       0.65700000
H        0.97710000      -2.56440000      -0.32970000
