16
Properties=species:S:1:pos:R:3 gdb_127422=T pbc="F F F"
C       -0.03990000       1.42360000      -0.00860000
N       -0.00880000      -0.02660000       0.00540000
N        0.00830000      -0.73570000      -1.12760000
C        0.03600000      -2.00230000      -0.71180000
C        0.06220000      -3.14230000      -1.67770000
C        0.03430000      -1.99570000       0.70420000
C        0.05850000      -3.13670000       1.62480000
O        0.05550000      -3.06810000       2.83080000
N        0.00530000      -0.71680000       1.12150000
H        0.84590000       1.80700000      -0.52000000
H       -0.93410000       1.76820000      -0.53270000
H       -0.05440000       1.75950000       1.02670000
H        0.95720000      -3.75860000      -1.54550000
H       -0.80680000      -3.79560000      -1.54980000
H        0.05660000      -2.75820000      -2.69930000
H        0.08110000      -4.12050000       1.10470000
