17
Properties=species:S:1:pos:R:3 gdb_3073=T pbc="F F F"
C       -0.09570000       1.48990000      -0.12780000
C        0.03460000      -0.02000000      -0.02520000
O        0.72400000      -0.49060000      -1.16580000
C        0.90450000      -1.88700000      -1.17060000
C        1.64820000      -2.27120000      -2.41970000
C        1.53970000      -3.62000000      -2.98580000
O        0.86930000      -2.51620000      -3.59170000
H        0.89170000       1.95790000      -0.17540000
H       -0.64910000       1.76550000      -1.02980000
H       -0.62730000       1.88660000       0.74230000
H        0.58090000      -0.30160000       0.89190000
H       -0.96090000      -0.49140000       0.03780000
H        1.48230000      -2.20640000      -0.28420000
H       -0.06270000      -2.41560000      -1.14680000
H        2.55980000      -1.70050000      -2.59890000
H        2.37320000      -4.03650000      -3.54940000
H        0.89230000      -4.35540000      -2.50830000
