14
Properties=species:S:1:pos:R:3 gdb_129202=T pbc="F F F"
N       -0.02090000       0.93990000       1.21020000
C        0.03030000       0.11580000       0.22900000
N        1.25450000      -0.34320000      -0.28780000
N        1.63010000      -1.17110000      -1.26640000
C        0.86070000      -1.82260000      -2.06280000
C       -0.61130000      -1.91230000      -2.20640000
O       -1.06310000      -2.63540000      -3.08020000
C       -1.53260000      -1.16120000      -1.33310000
C       -1.25170000      -0.32460000      -0.32710000
H        0.90820000       1.20310000       1.54610000
H        2.06140000       0.03740000       0.18620000
H        1.38590000      -2.44050000      -2.78700000
H       -2.57420000      -1.34590000      -1.57910000
H       -2.07250000       0.14060000       0.20830000
