17
Properties=species:S:1:pos:R:3 gdb_16444=T pbc="F F F"
C        0.09890000       1.53040000       0.06100000
C       -0.08060000       0.04490000      -0.03400000
C       -0.97410000      -0.75620000       0.81530000
N        0.48500000      -0.93090000       1.01090000
C        1.04470000      -1.76860000      -0.12470000
C        0.17530000      -2.84180000      -0.79740000
O       -0.39940000      -1.85470000      -1.69870000
C        0.47770000      -0.82480000      -1.18340000
H        1.11070000       1.83190000      -0.23170000
H       -0.61040000       2.04870000      -0.59510000
H       -0.07140000       1.87250000       1.08590000
H       -1.43170000      -0.25490000       1.66320000
H       -1.58030000      -1.54200000       0.37800000
H        2.10240000      -1.96940000       0.03370000
H        0.75380000      -3.59130000      -1.35160000
H       -0.57860000      -3.34900000      -0.18490000
H        1.04710000      -0.31340000      -1.96260000
