20
Properties=species:S:1:pos:R:3 gdb_107184=T pbc="F F F"
C       -0.11980000       1.51410000       0.25520000
C        0.10370000       0.01220000       0.03550000
C        0.73950000      -0.30840000      -1.28060000
O        1.40680000      -1.56010000      -1.44960000
C        2.12780000      -0.36300000      -1.75430000
C        1.68880000       0.15130000      -3.17100000
C        0.27900000       0.19980000      -2.70860000
N        0.69470000      -0.78350000      -3.72230000
C        0.26300000      -0.42670000      -5.07210000
H        0.82610000       2.06380000       0.21970000
H       -0.78180000       1.93880000      -0.50630000
H       -0.58020000       1.69690000       1.23030000
H        0.74320000      -0.39850000       0.82440000
H       -0.85520000      -0.51930000       0.10320000
H        3.07630000      -0.19770000      -1.25610000
H        2.23460000       0.84130000      -3.80150000
H       -0.48870000       0.93460000      -2.91550000
H        0.23640000       0.65880000      -5.27060000
H        0.94280000      -0.88990000      -5.79390000
H       -0.74050000      -0.82990000      -5.23970000
