18
Properties=species:S:1:pos:R:3 gdb_108885=T pbc="F F F"
C        0.13960000       1.52920000       0.07800000
C       -0.01250000       0.02990000      -0.17380000
C       -1.42670000      -0.45140000      -0.09720000
N       -2.45540000       0.25410000       0.14640000
C       -3.61730000      -0.66150000       0.10760000
C       -2.98580000      -2.06430000      -0.17540000
O       -1.58180000      -1.78670000      -0.32220000
C       -4.39830000      -0.62250000       1.34020000
C       -5.04810000      -0.62570000       2.35070000
H        1.19180000       1.81970000       0.01260000
H       -0.42770000       2.10810000      -0.65480000
H       -0.23600000       1.79860000       1.06790000
H        0.38050000      -0.24840000      -1.15990000
H        0.57420000      -0.55420000       0.54650000
H       -4.26650000      -0.35580000      -0.72260000
H       -3.12430000      -2.76080000       0.65460000
H       -3.35140000      -2.51870000      -1.09930000
H       -5.62100000      -0.61270000       3.24480000
