18
Properties=species:S:1:pos:R:3 gdb_30129=T pbc="F F F"
C       -0.06600000       1.53610000      -0.17980000
C       -0.01600000       0.03710000       0.00160000
C        1.26250000      -0.72790000      -0.21900000
C        0.70450000      -0.60800000       1.18000000
C        1.38200000       0.18870000       2.21880000
C        2.62080000       0.74390000       2.24810000
O        2.78140000       1.38730000       3.44620000
C        1.61410000       1.17450000       4.09130000
N        0.74830000       0.48090000       3.43210000
H        0.85720000       2.00930000       0.16710000
H       -0.20090000       1.79700000      -1.23520000
H       -0.89540000       1.97570000       0.38440000
H       -0.92650000      -0.47890000      -0.29140000
H        1.22650000      -1.69850000      -0.70090000
H        2.14900000      -0.14960000      -0.46020000
H        0.21400000      -1.48960000       1.58170000
H        3.45820000       0.77390000       1.57380000
H        1.52230000       1.59820000       5.07930000
