20
Properties=species:S:1:pos:R:3 gdb_79351=T pbc="F F F"
C        0.00090000       1.57030000       0.01080000
C        0.08530000       0.04510000       0.00270000
C        0.89440000      -0.56930000      -1.13260000
C        2.34980000      -0.72930000      -0.87450000
C        2.98470000      -0.11400000       0.35800000
O        2.06160000       0.07700000       1.42650000
C        0.81620000      -0.58550000       1.20900000
C        1.06040000      -2.02070000       0.72110000
N        1.44540000      -1.88440000      -0.70470000
H        0.98980000       2.02080000       0.12280000
H       -0.44300000       1.94150000      -0.91870000
H       -0.62200000       1.92280000       0.83950000
H       -0.93160000      -0.36970000      -0.03960000
H        0.51850000      -0.51360000      -2.15020000
H        3.02720000      -0.82400000      -1.72070000
H        3.80970000      -0.75890000       0.70020000
H        3.42350000       0.86070000       0.10570000
H        0.26700000      -0.51010000       2.14980000
H        1.84610000      -2.52580000       1.29030000
H        0.15010000      -2.62680000       0.77730000
