18
Properties=species:S:1:pos:R:3 gdb_125353=T pbc="F F F"
C        0.33210000       1.42340000       0.16290000
C        0.03420000      -0.02990000       0.02110000
C       -0.06970000      -0.85750000      -1.07290000
N       -0.36330000      -2.11880000      -0.65510000
N       -0.45580000      -2.12420000       0.64110000
N       -0.21100000      -0.86050000       1.07240000
C       -0.25850000      -0.52030000       2.46430000
C        0.09390000      -1.57240000       3.47100000
C        1.03280000      -0.41530000       3.24470000
H        1.19680000       1.59840000       0.81210000
H        0.54950000       1.85530000      -0.81620000
H       -0.51330000       1.97440000       0.59120000
H        0.05230000      -0.61760000      -2.11740000
H       -1.05530000       0.17530000       2.70860000
H       -0.49110000      -1.59980000       4.38250000
H        0.37610000      -2.54040000       3.07890000
H        1.95170000      -0.61580000       2.70580000
H        1.10350000       0.36240000       3.99650000
