14
Properties=species:S:1:pos:R:3 gdb_21117=T pbc="F F F"
C       -0.01360000       1.43240000       0.06760000
N       -0.02250000      -0.01440000       0.16610000
C       -1.11270000      -0.67040000       0.06010000
C       -1.12940000      -2.12110000       0.15780000
C       -2.30160000      -2.76340000       0.03950000
N       -3.44220000      -2.02400000      -0.16950000
N       -3.45840000      -0.66990000      -0.26520000
N       -2.38260000      -0.02750000      -0.16030000
H        0.66050000       1.72540000      -0.74710000
H       -0.99330000       1.89010000      -0.09990000
H        0.41990000       1.84500000       0.98730000
H       -0.19880000      -2.64660000       0.32300000
H       -2.43170000      -3.83740000       0.09550000
H       -4.35320000      -2.43940000      -0.26720000
