16
Properties=species:S:1:pos:R:3 gdb_49572=T pbc="F F F"
O       -1.00010000       1.15610000      -0.07550000
C        0.14630000       0.93680000       0.22320000
C        1.28950000       1.88380000      -0.05160000
N        2.61670000       1.22790000      -0.36690000
C        2.43760000       0.55420000      -1.67240000
C        2.64570000       2.01560000      -1.67150000
C        1.34300000       2.70840000      -1.34440000
C        0.30960000       3.31540000      -2.18130000
O        1.18160000       4.10430000      -1.34520000
H        0.44810000      -0.00030000       0.74330000
H        1.41810000       2.53530000       0.82150000
H        3.27870000      -0.08020000      -1.93240000
H        1.46410000       0.14840000      -1.94260000
H        3.54510000       2.50460000      -2.02800000
H        0.47640000       3.42150000      -3.25180000
H       -0.72650000       3.26620000      -1.85740000
