13
Properties=species:S:1:pos:R:3 gdb_365=T pbc="F F F"
C        0.00730000       1.37280000      -0.00600000
O       -0.04880000      -0.05770000       0.07200000
C       -1.27850000      -0.59680000      -0.03120000
O       -2.28740000       0.04620000      -0.17960000
C       -1.21640000      -2.11950000       0.06490000
N       -2.49650000      -2.79650000      -0.03520000
H        1.06050000       1.63540000       0.09330000
H       -0.38570000       1.72240000      -0.96410000
H       -0.57760000       1.82590000       0.79860000
H       -0.54010000      -2.47880000      -0.71970000
H       -0.72930000      -2.37720000       1.01280000
H       -3.11640000      -2.43780000       0.68630000
H       -2.94230000      -2.53100000      -0.90950000
