17
Properties=species:S:1:pos:R:3 gdb_63603=T pbc="F F F"
C       -0.12770000       1.53700000      -0.06060000
C       -0.05480000       0.03080000       0.03650000
C       -1.19260000      -0.73240000      -0.60580000
O        1.24140000      -0.53600000      -0.16800000
C        0.68460000      -0.62270000       1.15530000
C        1.32200000       0.12200000       2.20090000
C        1.83600000       0.71950000       3.11800000
C        2.47650000       1.45410000       4.17740000
O        2.22050000       1.32350000       5.35270000
H        0.73130000       2.00470000       0.42270000
H       -0.14330000       1.83970000      -1.11280000
H       -1.04310000       1.90930000       0.41030000
H       -1.25030000      -0.48940000      -1.67210000
H       -1.04620000      -1.81050000      -0.50870000
H       -2.14910000      -0.46230000      -0.14720000
H        0.36970000      -1.62610000       1.44080000
H        3.24570000       2.17160000       3.82670000
