16
Properties=species:S:1:pos:R:3 gdb_11897=T pbc="F F F"
N       -0.02580000       1.32500000      -0.13430000
C       -0.07550000      -0.04100000      -0.06640000
N       -1.09760000      -0.76090000       0.18780000
C       -0.65490000      -2.12820000       0.04640000
C       -1.24660000      -3.19870000       0.92020000
C       -1.57690000      -3.15260000      -0.55740000
C        0.84440000      -2.06350000      -0.28660000
O        1.10990000      -0.64740000      -0.36070000
H        0.87780000       1.73000000       0.05630000
H       -0.79890000       1.78440000       0.32130000
H       -0.59340000      -3.98990000       1.27650000
H       -2.01380000      -2.89030000       1.62110000
H       -2.56490000      -2.81300000      -0.84590000
H       -1.14680000      -3.91190000      -1.20400000
H        1.48450000      -2.49470000       0.49090000
H        1.10180000      -2.51330000      -1.25100000
