20
Properties=species:S:1:pos:R:3 gdb_90413=T pbc="F F F"
C       -0.64540000       1.32820000       0.11860000
C       -0.06320000      -0.07290000      -0.02780000
C        0.72490000      -0.49600000      -1.31440000
C        1.55770000       0.58860000      -2.02620000
N        2.55630000       0.51410000      -0.94600000
C        3.96390000       0.61190000      -1.24880000
C        2.00040000      -0.76840000      -0.44200000
C        1.18420000      -0.43160000       0.82070000
O        1.40920000      -0.42990000       1.99540000
H        0.11310000       2.09290000      -0.06940000
H       -1.47980000       1.48840000      -0.57200000
H       -1.01590000       1.47260000       1.13780000
H       -0.83960000      -0.81960000       0.18690000
H        0.25360000      -1.25860000      -1.92980000
H        1.94260000       0.22430000      -2.99310000
H        1.11190000       1.57840000      -2.17800000
H        4.18950000       1.61560000      -1.62500000
H        4.55080000       0.45750000      -0.33800000
H        4.30030000      -0.12130000      -2.00630000
H        2.64670000      -1.64970000      -0.50230000
