16
Properties=species:S:1:pos:R:3 gdb_13349=T pbc="F F F"
O       -0.57720000       0.70680000       0.79070000
C        0.08930000       0.95870000      -0.18030000
C        1.34810000       1.80320000      -0.15460000
C        1.28900000       2.96520000      -1.14940000
C        2.57230000       3.81220000      -1.22140000
O        2.62010000       4.20170000      -2.58360000
C        2.14370000       3.08690000      -3.28890000
O        1.14600000       2.47400000      -2.48650000
H       -0.18440000       0.57660000      -1.18670000
H        1.49910000       2.17210000       0.86480000
H        2.19510000       1.15890000      -0.42750000
H        0.42590000       3.60550000      -0.92100000
H        2.54410000       4.71050000      -0.60250000
H        3.45400000       3.21020000      -0.94850000
H        1.70820000       3.42670000      -4.23390000
H        2.95480000       2.36290000      -3.48360000
