16
Properties=species:S:1:pos:R:3 gdb_37156=T pbc="F F F"
C       -0.09860000       1.55300000       0.01460000
C        1.42410000       1.25350000       0.00810000
C        1.32140000       0.14990000       1.08780000
C        1.83890000      -0.96210000       0.17470000
C        0.79740000      -2.10000000       0.25400000
O       -0.03660000      -2.06780000       1.42700000
C       -0.49030000      -1.37880000       0.25370000
C        0.04940000       0.03570000       0.19020000
N        1.20480000      -0.00400000      -0.86030000
H       -0.49130000       2.10840000       0.86900000
H       -0.52550000       1.89660000      -0.93090000
H        2.24360000       1.94440000      -0.19020000
H        1.35150000       0.24410000       2.17560000
H        2.88910000      -1.22850000       0.04620000
H        0.94940000      -3.07440000      -0.19760000
H       -1.40290000      -1.72930000      -0.21350000
