20
Properties=species:S:1:pos:R:3 gdb_61208=T pbc="F F F"
C        0.04380000       1.54720000      -0.13670000
C       -0.02300000       0.02270000       0.01880000
C        0.68000000      -0.42020000       1.32960000
C        2.11240000      -0.13400000       1.31990000
N        3.24410000       0.09880000       1.29030000
C       -1.48020000      -0.52570000      -0.00190000
C       -2.31810000       0.01040000      -1.17270000
C       -1.42660000      -2.04160000      -0.08680000
O       -1.53550000      -2.79410000       0.84730000
H        1.07680000       1.89330000      -0.03900000
H       -0.32150000       1.87060000      -1.11360000
H       -0.55460000       2.04720000       0.63380000
H        0.52190000      -0.43100000      -0.82060000
H        0.22670000       0.09870000       2.18310000
H        0.53970000      -1.49050000       1.50920000
H       -1.96160000      -0.27350000       0.95080000
H       -3.29950000      -0.47370000      -1.19860000
H       -2.48360000       1.08570000      -1.08460000
H       -1.82660000      -0.17890000      -2.13370000
H       -1.25000000      -2.43230000      -1.11760000
