21
Properties=species:S:1:pos:R:3 gdb_41814=T pbc="F F F"
C       -0.06920000       1.39040000      -0.34910000
C        1.20740000       2.02540000       0.26820000
C        2.01540000       0.87060000       0.91080000
C        1.51220000      -0.37640000       0.16790000
C        0.00070000      -0.12480000      -0.02090000
C       -0.80500000      -0.47350000       1.23490000
O       -0.46090000       0.31350000       2.36800000
C        0.82110000       0.06250000       2.88310000
O        1.84240000       0.84550000       2.33400000
H       -0.98330000       1.84000000       0.04730000
H       -0.08420000       1.53790000      -1.43290000
H        1.80910000       2.51550000      -0.50380000
H        0.98340000       2.77210000       1.03190000
H        3.09120000       1.01500000       0.77770000
H        2.00400000      -0.40170000      -0.81120000
H        1.75310000      -1.31710000       0.67140000
H       -0.40240000      -0.73250000      -0.83890000
H       -1.86940000      -0.28520000       1.06140000
H       -0.68640000      -1.54320000       1.47440000
H        0.79980000       0.33550000       3.94180000
H        1.04590000      -1.01430000       2.78890000
