14
Properties=species:S:1:pos:R:3 gdb_7206=T pbc="F F F"
C        0.02550000       1.46010000      -0.00030000
C        0.03400000       0.01040000       0.05540000
C        0.04210000      -1.19600000       0.10130000
C        0.03370000      -2.63230000       0.16070000
O       -0.94420000      -3.29590000       0.44020000
C        1.38070000      -3.32900000      -0.16020000
C        1.35720000      -4.83550000      -0.09420000
O        2.35230000      -2.66990000      -0.43780000
H        1.01170000       1.85500000      -0.26370000
H       -0.69610000       1.81330000      -0.74500000
H       -0.26640000       1.88180000       0.96770000
H        0.60910000      -5.22990000      -0.78920000
H        2.34560000      -5.22750000      -0.33430000
H        1.04670000      -5.16270000       0.90310000
