18
Properties=species:S:1:pos:R:3 gdb_90845=T pbc="F F F"
O        0.06200000       1.38410000      -0.09900000
C       -0.04210000      -0.02680000      -0.00340000
C        0.35180000      -0.60520000       1.43400000
N       -0.90840000      -1.16420000       2.02590000
C       -1.54480000      -1.81570000       0.81980000
C       -2.97120000      -1.23240000       0.98690000
C       -2.93170000      -0.59000000      -0.44270000
C       -1.48150000      -0.45180000       0.08130000
C       -1.96020000      -0.19550000       1.54040000
H        0.99490000       1.61780000      -0.07400000
H        0.52250000      -0.51740000      -0.80800000
H        1.10390000      -1.39790000       1.37180000
H        0.73750000       0.20320000       2.06300000
H       -1.24090000      -2.79400000       0.44090000
H       -3.81950000      -1.68130000       1.50270000
H       -3.09230000      -1.26660000      -1.28710000
H       -3.49590000       0.33620000      -0.57880000
H       -2.14820000       0.77010000       2.01080000
