17
Properties=species:S:1:pos:R:3 gdb_87959=T pbc="F F F"
N       -0.18430000       1.26250000      -0.16080000
C       -0.15910000      -0.09760000      -0.07020000
N       -1.13940000      -0.86630000       0.22380000
C       -0.63200000      -2.21270000       0.07520000
C       -1.21720000      -3.32060000       0.92290000
C       -1.58220000      -3.20300000      -0.54400000
O       -2.84120000      -2.75370000      -0.92560000
C        0.85530000      -2.08040000      -0.26070000
O        1.04290000      -0.65000000      -0.37790000
H        0.70230000       1.72660000      -0.04290000
H       -0.96830000       1.70160000       0.29450000
H       -0.56210000      -4.13150000       1.22960000
H       -1.97290000      -3.03220000       1.64540000
H       -1.18270000      -3.95060000      -1.22650000
H       -2.85320000      -1.80580000      -0.72530000
H        1.51340000      -2.44800000       0.53410000
H        1.14380000      -2.54360000      -1.20930000
