18
Properties=species:S:1:pos:R:3 gdb_65354=T pbc="F F F"
C        0.23160000       1.46860000      -0.11880000
C        0.04060000      -0.02010000       0.09980000
N        1.25450000      -0.87090000       0.11650000
C        0.47950000      -0.73830000       1.35000000
C        1.14860000      -0.02740000       2.48980000
C        2.39080000      -0.59960000       3.06960000
N        2.43690000       0.64550000       2.28690000
C       -1.12020000      -0.58340000      -0.55950000
N       -2.03990000      -1.03440000      -1.09740000
H        1.06750000       1.83880000       0.47500000
H        0.42740000       1.67500000      -1.17480000
H       -0.67130000       2.01190000       0.17450000
H        1.08450000      -1.76200000      -0.34150000
H       -0.14880000      -1.57750000       1.64370000
H        0.46490000       0.50230000       3.15010000
H        2.59370000      -0.49080000       4.13080000
H        2.78740000      -1.50440000       2.61580000
H        2.75930000       0.41510000       1.34720000
