20
Properties=species:S:1:pos:R:3 gdb_124579=T pbc="F F F"
C       -0.06750000       1.57030000       0.00880000
C        0.01880000       0.03870000       0.01110000
C        0.88730000      -0.47380000       1.16530000
C       -1.40310000      -0.55210000       0.05080000
N       -1.44670000      -2.00310000      -0.07420000
C       -1.29280000      -2.75460000      -1.20560000
N       -1.36040000      -4.03350000      -0.93580000
N       -1.56550000      -4.15020000       0.42500000
C       -1.61210000      -2.93620000       0.91080000
H        0.92970000       2.01440000      -0.05920000
H       -0.65850000       1.94130000      -0.83530000
H       -0.53160000       1.93940000       0.93110000
H        0.47740000      -0.28220000      -0.93410000
H        0.47420000      -0.16480000       2.13340000
H        0.96410000      -1.56460000       1.16280000
H        1.90080000      -0.06800000       1.09430000
H       -1.89230000      -0.28880000       0.99480000
H       -2.00820000      -0.12300000      -0.75460000
H       -1.14480000      -2.32160000      -2.18310000
H       -1.76680000      -2.67190000       1.94560000
