18
Properties=species:S:1:pos:R:3 gdb_71430=T pbc="F F F"
C        0.02500000       1.39380000      -0.04550000
C        0.04450000      -0.10400000       0.00480000
C       -1.10950000      -1.07480000      -0.28160000
C       -0.20050000      -2.17300000       0.34220000
C        0.59610000      -1.02610000       1.08050000
C        1.33590000      -0.93570000      -0.22120000
N        0.92960000      -2.27870000      -0.61440000
C        0.89320000      -2.85190000      -1.85230000
O        0.10980000      -3.71350000      -2.19060000
H        0.96830000       1.81660000       0.31730000
H       -0.12750000       1.75250000      -1.06980000
H       -0.78050000       1.80220000       0.57510000
H       -1.96590000      -0.85530000       0.36160000
H       -1.44110000      -1.23700000      -1.31220000
H       -0.58890000      -3.09710000       0.75900000
H        0.91370000      -0.88170000       2.10290000
H        2.30060000      -0.50400000      -0.45310000
H        1.71790000      -2.48660000      -2.49970000
