17
Properties=species:S:1:pos:R:3 gdb_32475=T pbc="F F F"
C       -0.14280000       1.41740000       0.25590000
N       -0.16970000       0.15290000      -0.48540000
C       -1.20820000      -0.71530000      -0.24590000
C       -1.31130000      -2.03290000      -0.05280000
O       -2.66960000      -2.36900000      -0.01680000
C       -3.36740000      -1.19810000      -0.12070000
O       -2.47370000      -0.16730000      -0.28910000
N       -4.60360000      -1.01120000      -0.07730000
C       -5.47690000      -2.15600000       0.11180000
H        0.66500000       2.03550000      -0.14100000
H       -1.08650000       1.94130000       0.09770000
H        0.00610000       1.28450000       1.33730000
H        0.72020000      -0.32580000      -0.49110000
H       -0.59970000      -2.83140000       0.04230000
H       -4.98690000      -3.01560000       0.58670000
H       -6.32820000      -1.85480000       0.73000000
H       -5.88110000      -2.48900000      -0.85280000
