21
Properties=species:S:1:pos:R:3 gdb_108900=T pbc="F F F"
C        0.13360000       1.51080000       0.42610000
C        0.00140000       0.10370000      -0.18440000
C       -1.38380000      -0.46520000      -0.08280000
C       -2.19700000      -0.76670000      -1.09850000
C       -3.51200000      -1.37660000      -0.65180000
C       -3.48740000      -1.13230000       0.88490000
C       -2.01150000      -0.83990000       1.24480000
C       -4.69930000      -0.70130000      -1.31020000
O       -5.48980000      -1.23550000      -2.04310000
H        1.15750000       1.88180000       0.32130000
H       -0.53670000       2.21710000      -0.07330000
H       -0.11250000       1.51220000       1.49240000
H        0.30520000       0.13350000      -1.23640000
H        0.70560000      -0.56890000       0.32540000
H       -1.94910000      -0.64260000      -2.14760000
H       -3.56660000      -2.44170000      -0.90920000
H       -4.09920000      -0.25290000       1.11890000
H       -3.91080000      -1.97230000       1.43960000
H       -1.50640000      -1.72340000       1.66080000
H       -1.91940000      -0.05370000       2.00210000
H       -4.78450000       0.38420000      -1.05980000
