18
Properties=species:S:1:pos:R:3 gdb_57101=T pbc="F F F"
C        0.05610000       1.49520000      -0.07560000
C       -0.05360000      -0.03480000       0.06130000
C        0.65760000      -0.50770000       1.25160000
N        1.22560000      -0.85070000       2.19740000
C       -1.52470000      -0.49620000       0.11070000
O       -2.15830000      -0.08020000      -1.07670000
C       -3.06570000      -1.11640000      -1.43710000
C       -2.32690000      -2.36760000      -0.96770000
O       -1.62630000      -1.90560000       0.18460000
H        1.10260000       1.80280000      -0.12730000
H       -0.45670000       1.81520000      -0.98420000
H       -0.40360000       1.99500000       0.78200000
H        0.39430000      -0.51810000      -0.81470000
H       -2.02410000      -0.06740000       0.99540000
H       -4.02520000      -0.99550000      -0.91440000
H       -3.23130000      -1.06870000      -2.51510000
H       -2.98820000      -3.18630000      -0.67260000
H       -1.62440000      -2.73020000      -1.73020000
