12
Properties=species:S:1:pos:R:3 gdb_23694=T pbc="F F F"
F        0.10260000       0.07360000       0.00270000
C       -0.05020000       1.38600000       0.01120000
N       -1.21690000       1.89890000       0.02970000
C       -1.22740000       3.28670000       0.03660000
C       -0.12110000       4.06250000       0.02540000
C        1.20330000       3.46980000       0.00440000
N        2.28890000       4.14350000      -0.00700000
N        1.12920000       2.05050000      -0.00150000
H       -2.21780000       3.72880000       0.05230000
H       -0.17640000       5.14240000       0.03140000
H        3.11660000       3.54640000      -0.02130000
H        1.98400000       1.51180000      -0.01580000
