17
Properties=species:S:1:pos:R:3 gdb_54176=T pbc="F F F"
C        0.26050000       1.16550000      -0.57940000
C       -0.01150000       0.01600000       0.36520000
O        0.70240000      -0.25410000       1.30240000
C       -1.30230000      -0.77610000       0.16630000
C       -2.14140000      -0.91100000       1.41880000
O       -1.99530000      -0.56760000      -1.05920000
C       -1.38360000      -1.84900000      -0.86780000
C       -0.23920000      -2.20090000      -1.76270000
O        0.04370000      -3.33880000      -2.03480000
H        1.26040000       1.55910000      -0.39520000
H        0.13720000       0.87760000      -1.62530000
H       -0.48100000       1.95290000      -0.39340000
H       -2.47540000       0.07470000       1.75880000
H       -3.02180000      -1.52820000       1.22840000
H       -1.54080000      -1.35870000       2.21330000
H       -2.06510000      -2.67680000      -0.67470000
H        0.32980000      -1.33750000      -2.16750000
