14
Properties=species:S:1:pos:R:3 gdb_27268=T pbc="F F F"
N        0.15390000       1.39750000      -0.13650000
C       -0.03660000       0.02240000      -0.04650000
C       -1.09910000      -0.81550000      -0.02000000
O       -2.47250000      -0.82470000       0.06640000
C       -2.80450000      -2.19140000      -0.21660000
O       -1.64980000      -3.01600000       0.03600000
C       -0.60700000      -2.13750000      -0.02830000
C        0.74110000      -2.09120000      -0.04920000
O        1.09820000      -0.74460000      -0.07190000
H        0.82980000       1.73870000       0.53870000
H       -0.71810000       1.89870000      -0.02800000
H       -3.61750000      -2.50680000       0.44050000
H       -3.08440000      -2.28850000      -1.27590000
H        1.55020000      -2.79650000      -0.03890000
