23
Properties=species:S:1:pos:R:3 gdb_104309=T pbc="F F F"
C        0.07590000       1.57550000       0.03040000
C       -0.00140000       0.04440000       0.00700000
C       -1.42710000      -0.52820000      -0.03040000
O       -2.15150000      -0.15730000       1.15280000
C       -2.24120000      -0.14410000      -1.29550000
C       -3.29280000      -1.26470000      -1.45630000
C       -2.61760000      -2.50540000      -0.88930000
C       -1.19690000      -2.78010000      -1.31770000
C       -1.46590000      -2.05040000      -0.02480000
H        1.11660000       1.91130000       0.06230000
H       -0.38720000       2.02190000      -0.85600000
H       -0.41810000       1.99130000       0.91620000
H        0.55000000      -0.33720000      -0.86040000
H        0.49660000      -0.35640000       0.89780000
H       -2.23100000       0.80200000       1.16030000
H       -2.69620000       0.84550000      -1.19360000
H       -1.58290000      -0.09830000      -2.16960000
H       -4.17910000      -1.03490000      -0.85570000
H       -3.61950000      -1.38080000      -2.49550000
H       -3.23700000      -3.34570000      -0.59640000
H       -0.84370000      -3.80190000      -1.23250000
H       -0.77720000      -2.24510000      -2.16400000
H       -1.22720000      -2.53320000       0.91590000
