18
Properties=species:S:1:pos:R:3 gdb_116550=T pbc="F F F"
C        0.46230000       1.45780000       0.04440000
C        0.30650000      -0.06380000      -0.05490000
N       -1.09550000      -0.42420000       0.00460000
C       -1.72290000      -1.03620000      -0.92360000
N       -3.06300000      -1.34700000      -0.80960000
C       -3.86770000      -1.05690000       0.27090000
N       -5.09560000      -1.39210000       0.26480000
C       -1.17150000      -1.51090000      -2.24900000
O       -1.85720000      -2.08790000      -3.05880000
H        1.52020000       1.73080000       0.10530000
H        0.02890000       1.95110000      -0.83120000
H       -0.05020000       1.83500000       0.93330000
H        0.84610000      -0.42940000      -0.93870000
H        0.79120000      -0.52430000       0.81600000
H       -3.47840000      -1.83160000      -1.59510000
H       -3.32710000      -0.53730000       1.06440000
H       -5.53990000      -1.10450000       1.13460000
H       -0.10840000      -1.29940000      -2.44600000
