14
Properties=species:S:1:pos:R:3 gdb_49878=T pbc="F F F"
N        0.12160000       1.30580000       0.07320000
C        0.05470000       0.05180000       0.02690000
O        1.12840000      -0.80400000       0.13260000
C        0.74120000      -2.13830000       0.02300000
O        1.54190000      -3.01500000       0.05880000
C       -0.76680000      -2.20570000      -0.13530000
C       -1.22790000      -0.75180000      -0.12160000
C       -2.18120000      -0.40330000       1.02710000
O       -2.63730000      -1.21780000       1.78240000
H        1.08210000       1.62810000       0.19790000
H       -1.00550000      -2.74380000      -1.05470000
H       -1.19750000      -2.76700000       0.69940000
H       -1.72380000      -0.43490000      -1.04540000
H       -2.40860000       0.67730000       1.10550000
