18
Properties=species:S:1:pos:R:3 gdb_66469=T pbc="F F F"
C       -0.01830000       1.42830000       0.01060000
C        0.02000000      -0.06420000       0.02640000
C        0.49680000      -1.07350000      -0.98080000
C        1.22030000      -0.94640000       0.35630000
C        0.46600000      -2.12970000       1.00370000
O        1.25400000      -3.19070000       1.41340000
C       -0.69080000      -1.48880000       1.80140000
N       -1.14980000      -0.89360000       0.49530000
C       -0.46820000      -2.04360000      -0.26940000
H        0.90590000       1.83400000      -0.41350000
H       -0.86090000       1.79040000      -0.58700000
H       -0.12610000       1.82930000       1.02520000
H        0.84090000      -0.96480000      -2.00000000
H        2.21480000      -0.58310000       0.57710000
H        0.67720000      -3.89550000       1.72740000
H       -1.43320000      -2.21610000       2.15020000
H       -0.46570000      -0.77030000       2.59590000
H       -1.08710000      -2.83570000      -0.68820000
