19
Properties=species:S:1:pos:R:3 gdb_77725=T pbc="F F F"
C       -0.07220000       1.47920000       0.01960000
C        0.07440000      -0.02080000      -0.07620000
C        0.70760000      -0.73680000      -1.26290000
C        1.99040000      -0.02330000      -1.71020000
O        2.51240000       0.03250000      -0.35180000
C        1.38060000      -0.72560000       0.10060000
C        1.46140000      -2.16200000       0.55600000
O        0.46150000      -2.83030000      -0.22540000
C        0.35320000      -2.18360000      -1.51060000
H        0.85860000       1.98580000      -0.24520000
H       -0.86770000       1.84040000      -0.63980000
H       -0.32500000       1.77100000       1.04400000
H       -0.75700000      -0.59340000       0.32850000
H        2.62570000      -0.65090000      -2.34590000
H        1.89640000       0.97400000      -2.15370000
H        2.47440000      -2.54230000       0.35360000
H        1.21280000      -2.34970000       1.60440000
H       -0.66680000      -2.37240000      -1.85820000
H        1.05560000      -2.62370000      -2.23600000
