14
Properties=species:S:1:pos:R:3 gdb_132379=T pbc="F F F"
N        0.04500000       1.34470000      -0.17000000
C       -0.00470000      -0.02950000      -0.08180000
C       -1.22740000      -0.71130000      -0.01240000
C       -1.16690000      -2.09440000       0.01810000
F       -2.30470000      -2.78410000       0.08540000
C        0.03350000      -2.78480000      -0.01940000
C        1.17740000      -1.99020000      -0.08610000
O        2.38040000      -2.59860000      -0.12160000
N        1.17840000      -0.66150000      -0.11250000
H        0.94710000       1.74290000       0.04140000
H       -0.74050000       1.85860000       0.19510000
H       -2.17880000      -0.19670000       0.00770000
H        0.08210000      -3.86340000       0.00500000
H        3.03400000      -1.88730000      -0.16970000
