20
Properties=species:S:1:pos:R:3 gdb_11958=T pbc="F F F"
C        0.04500000       1.29340000      -0.27320000
O       -0.00710000      -0.03440000       0.21960000
C       -1.27120000      -0.58430000       0.19380000
C       -1.89480000      -1.09530000      -1.08060000
C       -1.62790000      -2.05730000       0.06340000
C       -0.75700000      -3.27140000      -0.07660000
C       -2.73870000      -1.87580000       1.11180000
C       -2.34090000      -0.36880000       1.27080000
H        1.08920000       1.61130000      -0.22770000
H       -0.30600000       1.34930000      -1.31320000
H       -0.56120000       1.97840000       0.33660000
H       -2.91090000      -0.83070000      -1.36940000
H       -1.19680000      -1.18430000      -1.90790000
H        0.10830000      -3.06180000      -0.71320000
H       -0.38120000      -3.60440000       0.89770000
H       -1.30670000      -4.10820000      -0.52440000
H       -3.75770000      -2.07440000       0.76360000
H       -2.56220000      -2.45050000       2.02470000
H       -1.90150000      -0.16410000       2.24990000
H       -3.11370000       0.37840000       1.06210000
