16
Properties=species:S:1:pos:R:3 gdb_46263=T pbc="F F F"
O       -0.04220000       0.02270000      -0.27130000
C       -0.05150000       1.19750000      -0.06610000
C       -1.12840000       2.24250000       0.27860000
N       -0.02250000       3.19350000       0.58160000
C        1.01180000       2.30180000       0.00660000
C        2.40580000       2.20600000       0.70960000
C        3.05760000       2.64820000      -0.60910000
O        2.67530000       1.69350000      -1.60680000
C        1.75470000       2.73180000      -1.28810000
H       -1.75680000       2.49510000      -0.58610000
H       -1.77500000       2.01360000       1.13180000
H       -0.10320000       4.09280000       0.11920000
H        2.46710000       2.94980000       1.50740000
H        2.70920000       1.22360000       1.07770000
H        3.97760000       3.19540000      -0.77620000
H        1.38680000       3.35890000      -2.09430000
