15
Properties=species:S:1:pos:R:3 gdb_133268=T pbc="F F F"
C        0.03860000       1.41460000       0.12190000
N        0.04070000      -0.03710000       0.10320000
C       -1.08110000      -0.64930000      -0.03410000
C       -2.42250000      -0.06310000      -0.18110000
N       -3.54130000      -0.71090000      -0.31840000
N       -3.47570000      -2.04620000      -0.32840000
C       -2.30860000      -2.75740000      -0.20260000
C       -1.13800000      -2.10050000      -0.05920000
F       -0.01020000      -2.78600000       0.06210000
H        1.06520000       1.76940000       0.24530000
H       -0.35150000       1.85300000      -0.81010000
H       -0.55550000       1.83020000       0.95090000
H       -2.52760000       1.01510000      -0.17910000
H       -4.36070000      -2.51160000      -0.43540000
H       -2.37960000      -3.83660000      -0.22480000
