16
Properties=species:S:1:pos:R:3 gdb_20079=T pbc="F F F"
C       -0.61220000       1.08800000      -0.15110000
O        0.69320000       1.26920000       0.40750000
C        0.25610000      -0.05750000       0.13520000
C        0.05280000      -0.94410000       1.35050000
O       -0.93620000      -0.46330000       2.24390000
C       -2.05770000      -1.33700000       2.15320000
C       -1.41060000      -2.65550000       1.74190000
O       -0.35780000      -2.22120000       0.89120000
H       -1.43370000       1.31110000       0.52470000
H       -0.73180000       1.42470000      -1.17980000
H        0.77150000      -0.55850000      -0.68510000
H        0.99450000      -1.01370000       1.91770000
H       -2.55310000      -1.36370000       3.12660000
H       -2.77050000      -0.98990000       1.39160000
H       -1.01610000      -3.19560000       2.61480000
H       -2.06560000      -3.31820000       1.17160000
