21
Properties=species:S:1:pos:R:3 gdb_39151=T pbc="F F F"
C       -0.04900000       1.49940000      -0.20960000
C        1.49890000       1.59990000       0.05110000
C        2.02410000       2.43200000       1.26310000
C        2.20840000       1.41200000       2.44640000
C        1.26840000       0.33090000       2.00410000
C        0.06660000      -0.06090000       2.43120000
C       -0.79500000      -0.57440000       1.28640000
C       -0.02440000      -0.05090000       0.05250000
C        1.44030000       0.12420000       0.51450000
H       -0.66000000       2.06260000       0.50130000
H       -0.35480000       1.78150000      -1.21990000
H        2.06080000       1.80120000      -0.86340000
H        2.96510000       2.93880000       1.02900000
H        1.30340000       3.20720000       1.54310000
H        3.24920000       1.06710000       2.48150000
H        1.96470000       1.84060000       3.42140000
H       -0.32220000       0.09250000       3.43270000
H       -0.89950000      -1.66910000       1.27260000
H       -1.81390000      -0.16910000       1.34510000
H       -0.19200000      -0.63860000      -0.85240000
H        2.22500000      -0.58270000       0.22690000
