15
Properties=species:S:1:pos:R:3 gdb_9243=T pbc="F F F"
C        0.00090000       1.39440000      -0.01970000
O        0.00890000      -0.01500000       0.09220000
C       -1.27870000      -0.60680000       0.02610000
C       -1.77820000      -0.77110000      -1.41950000
C       -1.20180000      -1.90270000       0.70280000
C       -1.16870000      -2.97970000       1.24740000
C       -1.12640000      -4.19700000       1.86470000
N       -1.09420000      -5.23300000       2.38920000
H        1.03340000       1.72330000       0.11360000
H       -0.35220000       1.73800000      -1.00200000
H       -0.62400000       1.85740000       0.75890000
H       -2.00010000       0.01470000       0.58450000
H       -1.87170000       0.20670000      -1.89860000
H       -1.07300000      -1.38020000      -1.98930000
H       -2.75840000      -1.25510000      -1.43310000
