18
Properties=species:S:1:pos:R:3 gdb_26322=T pbc="F F F"
C        0.13290000       1.49310000       0.08690000
C       -0.05380000      -0.02940000      -0.04870000
C       -1.53540000      -0.42230000      -0.01640000
C        0.63790000      -0.53860000      -1.27770000
C        0.13950000      -1.17620000      -2.36070000
O        1.19420000      -1.43120000      -3.22950000
C        2.26060000      -0.91580000      -2.58420000
O        3.44350000      -1.01540000      -3.18820000
N        2.02290000      -0.37700000      -1.44010000
H        1.19240000       1.75650000       0.05030000
H       -0.37740000       2.01940000      -0.72750000
H       -0.28350000       1.84830000       1.03510000
H        0.44710000      -0.49680000       0.81060000
H       -2.08030000       0.02970000      -0.85310000
H       -1.66540000      -1.50770000      -0.07250000
H       -2.00360000      -0.07370000       0.90880000
H       -0.82830000      -1.51520000      -2.68180000
H        3.31890000      -1.46900000      -4.03050000
