15
Properties=species:S:1:pos:R:3 gdb_51483=T pbc="F F F"
O        0.61330000       0.13120000       0.27410000
C        0.60960000       1.31580000       0.40110000
O        1.02810000       2.14660000      -0.59200000
C        0.97700000       3.52100000      -0.31520000
C        1.84740000       4.10280000       0.79450000
O        2.84080000       3.26170000       1.30620000
C        3.71450000       2.89400000       0.23810000
O        3.41060000       3.70960000      -0.88270000
C        2.20080000       4.35980000      -0.63680000
H        0.27620000       1.86270000       1.30030000
H        0.00940000       3.98560000      -0.49270000
H        1.47680000       4.82390000       1.51260000
H        4.75280000       3.06820000       0.54450000
H        3.55690000       1.83950000      -0.01690000
H        2.10880000       5.30430000      -1.15780000
