15
Properties=species:S:1:pos:R:3 gdb_9924=T pbc="F F F"
C       -0.03390000       1.54240000      -0.01400000
C        0.01920000       0.02380000      -0.01260000
C       -1.14220000      -0.64430000      -0.53490000
N       -2.06580000      -1.19800000      -0.96000000
C        1.37300000      -0.70030000      -0.25080000
O        2.51740000       0.05770000      -0.40940000
C        0.73760000      -0.72500000       1.10840000
O        1.34070000       0.09680000       2.07090000
H        0.95500000       1.95960000       0.17530000
H       -0.37190000       1.90120000      -0.98930000
H       -0.72210000       1.91250000       0.75020000
H        1.35650000      -1.58590000      -0.87710000
H        2.72440000       0.42690000       0.46160000
H        0.27500000      -1.63300000       1.48580000
H        1.85010000      -0.46520000       2.66500000
