20
Properties=species:S:1:pos:R:3 gdb_12061=T pbc="F F F"
C       -0.08920000       1.60950000       0.08760000
C        0.01260000       0.08660000       0.04510000
C       -1.35870000      -0.54100000      -0.18840000
O       -1.83920000      -0.12360000      -1.45960000
C        1.07840000      -0.54690000      -0.92510000
C        1.70470000      -1.28620000       0.26260000
C        2.17830000      -0.29740000       1.28850000
C        0.71290000      -0.62450000       1.22220000
H        0.89020000       2.07720000       0.22230000
H       -0.52410000       1.98760000      -0.84170000
H       -0.73100000       1.93350000       0.91590000
H       -1.27050000      -1.63800000      -0.13880000
H       -2.04470000      -0.22740000       0.61660000
H       -2.70610000      -0.51500000      -1.59760000
H        0.61550000      -1.19260000      -1.67320000
H        1.73880000       0.15950000      -1.43900000
H        2.05700000      -2.31050000       0.25250000
H        2.69980000      -0.72050000       2.14140000
H        2.55310000       0.67660000       0.98310000
H        0.19370000      -1.05460000       2.07280000
