14
Properties=species:S:1:pos:R:3 gdb_4895=T pbc="F F F"
O        0.01680000       1.46880000       0.01300000
C        0.00240000       0.04750000       0.07040000
C       -1.35520000      -0.53210000      -0.07630000
C       -1.97130000      -1.26400000      -1.01190000
N       -3.27480000      -1.47780000      -0.57510000
C       -3.46860000      -0.86490000       0.64510000
N       -4.53500000      -0.85680000       1.32790000
O       -2.25800000      -0.27130000       0.95580000
H       -0.56230000       1.78860000       0.71320000
H        0.62660000      -0.30430000      -0.75580000
H        0.45800000      -0.30910000       1.00780000
H       -1.60260000      -1.64960000      -1.94670000
H       -3.99410000      -2.00980000      -1.02930000
H       -4.40860000      -0.33780000       2.19210000
