19
Properties=species:S:1:pos:R:3 gdb_105680=T pbc="F F F"
O        0.14950000       1.35120000      -0.21040000
C        0.09510000      -0.03650000       0.05410000
C       -1.34610000      -0.56000000       0.08650000
C       -2.05420000      -0.50330000      -1.31080000
C       -1.68070000      -1.99080000      -1.54390000
C       -1.45210000      -2.13080000      -0.03000000
O       -0.33670000      -2.90740000       0.32080000
C       -2.13710000       0.06590000       1.19650000
O       -1.76010000       0.97820000       1.89760000
H       -0.26520000       1.77740000       0.55050000
H        0.65620000      -0.53490000      -0.74080000
H        0.59040000      -0.28700000       1.00340000
H       -3.13430000      -0.35180000      -1.22630000
H       -1.64510000       0.24780000      -1.98710000
H       -2.42330000      -2.64600000      -2.00270000
H       -0.73570000      -2.09690000      -2.08170000
H       -2.36430000      -2.48410000       0.47400000
H       -0.32560000      -3.03180000       1.27530000
H       -3.15440000      -0.36780000       1.34460000
