20
Properties=species:S:1:pos:R:3 gdb_99171=T pbc="F F F"
C       -0.39480000       1.39680000       0.12410000
N       -0.10080000      -0.02300000       0.15010000
C        0.36310000      -0.66150000       1.26230000
O        0.60180000      -0.08510000       2.31090000
C        0.54520000      -2.17150000       1.10760000
C        1.49110000      -2.73390000       2.15770000
C        0.99580000      -2.77420000       3.61860000
O        1.19480000      -4.20600000       3.69180000
C        1.56790000      -4.27020000       2.30360000
H       -0.13880000       1.79780000       1.10530000
H        0.19820000       1.91240000      -0.63930000
H       -1.45670000       1.58310000      -0.07230000
H       -0.27490000      -0.56780000      -0.67800000
H       -0.44300000      -2.64240000       1.20650000
H        0.90010000      -2.40960000       0.09650000
H        2.47260000      -2.26410000       2.06490000
H        1.60130000      -2.23310000       4.35180000
H       -0.05650000      -2.49740000       3.75590000
H        0.83310000      -4.82830000       1.70430000
H        2.55530000      -4.72640000       2.16030000
