18
Properties=species:S:1:pos:R:3 gdb_108027=T pbc="F F F"
C        0.04290000       1.26510000      -0.22840000
O       -0.10090000      -0.05550000       0.26900000
C       -1.38150000      -0.56120000       0.17240000
C       -2.54910000      -0.06520000       1.01970000
N       -3.62480000      -0.96380000       0.60000000
C       -3.42960000      -1.33230000      -0.82150000
C       -3.04740000      -2.28220000       0.26040000
C       -1.54480000      -2.04420000      -0.04130000
C       -1.93730000      -1.07660000      -1.14960000
H        1.10520000       1.51060000      -0.16650000
H       -0.28560000       1.33820000      -1.27400000
H       -0.52420000       1.99190000       0.36890000
H       -2.36030000      -0.17620000       2.09210000
H       -2.82970000       0.97200000       0.81010000
H       -4.27440000      -1.30700000      -1.49810000
H       -3.51550000      -3.18440000       0.63280000
H       -0.72850000      -2.75030000      -0.00300000
H       -1.47920000      -0.91990000      -2.11530000
