22
Properties=species:S:1:pos:R:3 gdb_13285=T pbc="F F F"
C       -0.00830000       1.39940000      -0.03710000
O        0.00830000       0.00010000       0.09420000
C       -1.27630000      -0.57690000      -0.00350000
C       -1.14810000      -2.08780000       0.14290000
C       -2.48410000      -2.81040000       0.03980000
C       -3.21640000      -2.88240000      -1.33390000
C       -3.62320000      -4.34210000      -0.99780000
C       -2.49960000      -4.36510000       0.07330000
H        1.02290000       1.75090000       0.05120000
H       -0.40810000       1.71580000      -1.01430000
H       -0.61460000       1.87880000       0.74870000
H       -1.93930000      -0.17040000       0.78120000
H       -1.73720000      -0.32090000      -0.97380000
H       -0.46380000      -2.45770000      -0.63130000
H       -0.67590000      -2.30580000       1.10910000
H       -3.17460000      -2.42340000       0.80010000
H       -4.01290000      -2.16080000      -1.53250000
H       -2.50080000      -2.84540000      -2.16270000
H       -4.61700000      -4.39080000      -0.54320000
H       -3.57530000      -5.08100000      -1.80110000
H       -1.56810000      -4.77620000      -0.32980000
H       -2.70790000      -4.85320000       1.02880000
