21
Properties=species:S:1:pos:R:3 gdb_73309=T pbc="F F F"
C       -0.00600000       1.44570000       0.04140000
C       -0.00060000      -0.06210000      -0.01340000
C        0.96650000      -0.76170000      -0.96870000
O        0.35510000      -2.00560000      -1.30960000
C       -0.67810000      -2.24530000      -0.35360000
C       -1.55470000      -3.37150000      -0.83950000
C       -0.07270000      -2.31840000       1.09370000
C       -0.39140000      -0.83150000       1.24310000
C       -1.27380000      -0.85350000      -0.00010000
H        0.95650000       1.83450000       0.39420000
H       -0.19710000       1.87840000      -0.94720000
H       -0.77860000       1.81410000       0.72350000
H        1.11170000      -0.17960000      -1.88770000
H        1.95480000      -0.92830000      -0.51510000
H       -0.97010000      -4.29080000      -0.94500000
H       -2.37030000      -3.55850000      -0.13560000
H       -1.98330000      -3.12610000      -1.81610000
H       -0.69100000      -2.92960000       1.75780000
H        0.96930000      -2.64850000       1.16420000
H       -0.56370000      -0.30510000       2.17540000
H       -2.26900000      -0.47120000      -0.18830000
