14
Properties=species:S:1:pos:R:3 gdb_4764=T pbc="F F F"
C        0.02390000       1.37590000      -0.06970000
N        0.21240000      -0.06320000      -0.06830000
C        0.66240000      -0.62660000       0.95260000
O        1.03040000      -0.05150000       2.15580000
C        1.45830000      -1.07980000       2.97180000
C        1.37030000      -2.23570000       2.32210000
N        1.67520000      -3.53400000       2.69980000
O        0.86880000      -1.97370000       1.03780000
H        0.69890000       1.83270000      -0.80330000
H       -0.99760000       1.60380000      -0.39360000
H        0.19540000       1.85610000       0.90120000
H        1.78770000      -0.82920000       3.96400000
H        2.39520000      -3.94180000       2.11030000
H        0.86180000      -4.14140000       2.66130000
