21
Properties=species:S:1:pos:R:3 gdb_120662=T pbc="F F F"
C        0.34580000       1.37850000      -0.23910000
O        0.38350000      -0.02540000      -0.16790000
C        0.37630000      -0.50580000       1.16170000
C        0.38260000      -2.00860000       1.14300000
C        1.67940000      -2.76690000       0.88140000
C        1.04840000      -2.78950000       2.23280000
C        1.59710000      -2.35240000       3.58940000
C        0.94720000      -3.66080000       4.08940000
O        0.45340000      -3.97350000       2.76650000
H        1.21740000       1.83880000       0.25460000
H        0.35490000       1.65400000      -1.29650000
H       -0.56430000       1.79020000       0.22690000
H        1.25900000      -0.12640000       1.70720000
H       -0.51440000      -0.12960000       1.69510000
H       -0.51530000      -2.46590000       0.73680000
H        1.61840000      -3.67190000       0.28700000
H        2.58830000      -2.18860000       0.74290000
H        2.68520000      -2.30860000       3.66310000
H        1.16920000      -1.43530000       3.99930000
H        1.64200000      -4.42580000       4.45410000
H        0.12990000      -3.54400000       4.81000000
