22
Properties=species:S:1:pos:R:3 gdb_97419=T pbc="F F F"
C       -0.31850000       1.52110000       0.30730000
N       -0.04030000       0.13870000      -0.01900000
C       -1.02570000      -0.62120000      -0.19910000
O       -0.85070000      -1.91330000      -0.54250000
C       -1.99980000      -2.74460000      -0.57290000
C       -1.88450000      -3.96430000      -1.50320000
C       -2.59070000      -4.80950000      -0.40560000
C       -2.25210000      -3.69860000       0.63670000
C       -1.01600000      -3.98670000       1.48340000
H        0.12540000       2.17600000      -0.45150000
H       -1.39300000       1.75910000       0.38020000
H        0.15470000       1.77690000       1.26230000
H       -2.08120000      -0.31420000      -0.11410000
H       -2.88790000      -2.14050000      -0.79680000
H       -2.35050000      -3.89390000      -2.48810000
H       -0.83700000      -4.24790000      -1.62840000
H       -3.66500000      -4.90820000      -0.58010000
H       -2.17840000      -5.80130000      -0.20660000
H       -3.08130000      -3.39690000       1.28420000
H       -0.16640000      -4.29940000       0.86850000
H       -0.70260000      -3.10100000       2.04410000
H       -1.22710000      -4.78710000       2.20010000
