19
Properties=species:S:1:pos:R:3 gdb_56502=T pbc="F F F"
C        0.02950000       1.57640000       0.07250000
C        0.00290000       0.03590000       0.04090000
C        0.77360000      -0.50730000       1.15660000
C        1.42920000      -0.92320000       2.07440000
C       -1.46660000      -0.52980000       0.02400000
C       -1.47470000      -2.06210000       0.08080000
O       -2.18870000      -0.09370000       1.17400000
C       -2.13650000      -0.07110000      -1.20430000
C       -2.69320000       0.31700000      -2.19710000
H        1.05900000       1.93760000       0.01990000
H       -0.52900000       1.98710000      -0.77270000
H       -0.40330000       1.94770000       1.00580000
H        0.46720000      -0.29710000      -0.89650000
H        2.00450000      -1.29890000       2.88400000
H       -1.02890000      -2.38900000       1.02200000
H       -2.50320000      -2.42390000       0.02530000
H       -0.90480000      -2.48300000      -0.75130000
H       -2.43670000       0.82720000       1.04200000
H       -3.19170000       0.64990000      -3.07420000
