17
Properties=species:S:1:pos:R:3 gdb_18737=T pbc="F F F"
C       -0.30240000       1.54590000       0.00710000
C        0.01210000       0.06330000      -0.00730000
C        1.13980000      -0.47760000      -0.94340000
C        1.72860000      -1.21910000       0.28730000
C        2.90870000      -0.59000000       1.05970000
C        1.81350000       0.25250000       1.75910000
O        1.79680000       1.22290000       2.46030000
N        0.75420000      -0.50170000       1.18520000
H        0.60070000       2.15230000       0.11530000
H       -0.79560000       1.82350000      -0.93050000
H       -0.97370000       1.79530000       0.83390000
H       -0.91180000      -0.51170000      -0.12650000
H        0.81830000      -1.10360000      -1.77800000
H        1.79270000       0.31370000      -1.32510000
H        1.66220000      -2.30850000       0.27380000
H        3.45790000      -1.27280000       1.71310000
H        3.62130000       0.00550000       0.48440000
