18
Properties=species:S:1:pos:R:3 gdb_117059=T pbc="F F F"
C        0.04730000       1.48050000       0.13200000
C        0.01100000      -0.03080000       0.01710000
O        0.69280000      -0.56790000       1.16410000
C        0.76320000      -1.89750000       1.23920000
N        0.27050000      -2.68000000       0.37060000
C        1.50990000      -2.30850000       2.50210000
O        1.96860000      -1.55020000       3.31220000
O        1.58320000      -3.64900000       2.58200000
C        2.26840000      -4.15420000       3.73620000
H        1.07780000       1.84580000       0.15070000
H       -0.46340000       1.92850000      -0.72560000
H       -0.45210000       1.81450000       1.04560000
H       -1.01200000      -0.42160000      -0.00050000
H        0.50860000      -0.39050000      -0.88990000
H        0.44650000      -3.64570000       0.63890000
H        3.30050000      -3.79590000       3.75430000
H        1.76610000      -3.82910000       4.65050000
H        2.23940000      -5.23960000       3.64650000
