19
Properties=species:S:1:pos:R:3 gdb_114978=T pbc="F F F"
C        0.03130000       1.56080000       0.03860000
C       -0.04970000       0.03460000      -0.04750000
C        0.73810000      -0.55000000      -1.21440000
C        0.74620000      -2.07700000      -1.25120000
C        1.32180000      -2.55330000      -2.55340000
C        1.28250000      -1.77410000      -3.63600000
C        0.57660000      -0.47220000      -3.62990000
O        0.30560000       0.14010000      -4.63070000
O        0.16310000      -0.00360000      -2.42200000
H        1.06480000       1.89410000       0.18460000
H       -0.34380000       2.01980000      -0.87900000
H       -0.56140000       1.93470000       0.87830000
H        0.33330000      -0.41780000       0.87570000
H       -1.09480000      -0.28310000      -0.14600000
H        1.78060000      -0.20120000      -1.16440000
H        1.33340000      -2.45450000      -0.40660000
H       -0.27210000      -2.47210000      -1.12170000
H        1.75590000      -3.54850000      -2.60030000
H        1.67420000      -2.07650000      -4.59960000
