16
Properties=species:S:1:pos:R:3 gdb_54883=T pbc="F F F"
C       -0.05220000       1.53120000       0.00920000
C        0.10650000       0.01890000       0.00150000
O        1.18090000      -0.52100000      -0.01010000
N       -1.10050000      -0.71560000       0.00900000
C       -2.39880000      -0.17590000       0.02130000
N       -3.36810000      -0.99870000       0.02600000
C       -2.76590000      -2.33280000       0.01640000
C       -1.24910000      -2.13430000       0.00510000
N       -0.29360000      -2.96030000      -0.00520000
H        0.94880000       1.96060000       0.00340000
H       -0.59960000       1.88420000      -0.87060000
H       -0.58620000       1.87670000       0.90020000
H       -2.52650000       0.89870000       0.02610000
H       -3.08420000      -2.90050000       0.89830000
H       -3.09810000      -2.89410000      -0.86450000
H       -0.66300000      -3.91240000      -0.00560000
