17
Properties=species:S:1:pos:R:3 gdb_48945=T pbc="F F F"
O       -0.78230000       0.94900000       0.52990000
C        0.23420000       0.81160000      -0.10480000
C        1.37390000       1.78840000      -0.08350000
C        1.48410000       2.82530000       1.05710000
N        1.91950000       3.91460000       0.11470000
C        3.36090000       3.70330000      -0.27350000
C        2.99050000       2.56910000      -1.25710000
N        2.65580000       1.27910000      -0.61450000
C        1.51970000       3.02150000      -1.05160000
H        0.39570000      -0.05370000      -0.78540000
H        0.50160000       3.06300000       1.47330000
H        2.18350000       2.60560000       1.87060000
H        3.73240000       4.59760000      -0.78500000
H        4.03560000       3.46190000       0.55540000
H        3.52350000       2.48640000      -2.20690000
H        3.32030000       0.93980000       0.07820000
H        0.79930000       3.36110000      -1.79220000
