15
Properties=species:S:1:pos:R:3 gdb_52300=T pbc="F F F"
O        0.39010000       0.21790000      -0.65620000
C        0.41110000       1.40390000      -0.54080000
O        0.81180000       2.01010000       0.60250000
C        0.86290000       3.43620000       0.60700000
C        2.23630000       3.92550000       0.17950000
O        2.49610000       3.73440000      -1.23110000
C        2.70040000       5.14110000      -1.49320000
C        2.40200000       5.44410000      -0.02070000
O        2.30700000       6.41200000       0.66620000
H        0.10520000       2.12220000      -1.32300000
H        0.08970000       3.85240000      -0.05030000
H        0.65950000       3.75500000       1.63260000
H        3.01260000       3.46190000       0.80240000
H        3.72280000       5.37030000      -1.81780000
H        1.98650000       5.55290000      -2.21700000
