23
Properties=species:S:1:pos:R:3 gdb_114544=T pbc="F F F"
C       -0.01810000       1.51380000       0.07740000
C        0.02630000       0.00150000       0.07260000
C        0.84090000      -0.79060000      -1.00000000
C        0.74720000      -1.93380000       0.04810000
C        0.85450000      -0.81520000       1.11980000
C       -0.76220000      -2.23990000       0.05320000
C       -1.31800000      -0.77670000       0.03160000
C       -2.30070000      -0.46120000       1.14910000
O       -3.42810000      -1.31320000       0.98100000
H        0.99120000       1.93750000       0.04280000
H       -0.56970000       1.89630000      -0.78990000
H       -0.50740000       1.90400000       0.97710000
H        0.38160000      -0.94730000      -1.98180000
H        1.85620000      -0.40180000      -1.11680000
H        1.43160000      -2.78270000       0.03480000
H        1.87060000      -0.42580000       1.22490000
H        0.42470000      -1.00000000       2.10900000
H       -1.07840000      -2.82090000      -0.81740000
H       -1.08000000      -2.78430000       0.94730000
H       -1.83320000      -0.57230000      -0.91460000
H       -1.83060000      -0.62250000       2.13240000
H       -2.60110000       0.59760000       1.09910000
H       -4.04470000      -1.13930000       1.69790000
