19
Properties=species:S:1:pos:R:3 gdb_39857=T pbc="F F F"
C        0.00920000       1.46560000      -0.03010000
N        1.22210000       0.61700000       0.07550000
C       -0.09710000      -0.00420000       0.00840000
C       -0.58390000      -0.90840000       1.13680000
C        0.22620000      -2.16870000       0.78000000
N       -0.63830000      -2.28130000      -0.45150000
C       -1.76320000      -1.61260000       0.34760000
C       -2.14500000      -0.80570000      -0.89510000
C       -0.61950000      -0.88680000      -1.12530000
H       -0.20670000       2.05910000       0.85450000
H       -0.19120000       1.97340000      -0.97140000
H        1.68570000       0.56830000      -0.82940000
H       -0.66800000      -0.49400000       2.14140000
H        1.30210000      -2.05890000       0.61860000
H        0.02400000      -3.03410000       1.41710000
H       -2.45120000      -2.25320000       0.90060000
H       -2.70830000      -1.42560000      -1.59560000
H       -2.59750000       0.18220000      -0.79160000
H       -0.15460000      -0.81200000      -2.10910000
