17
Properties=species:S:1:pos:R:3 gdb_127401=T pbc="F F F"
C       -0.11420000       1.51930000      -0.06890000
N        0.05860000       0.08090000       0.02780000
C        0.72030000      -0.54990000      -1.15060000
C        1.38840000      -1.87340000      -0.64640000
C        1.51750000      -1.51460000       0.79710000
C        0.76670000      -0.43770000       1.12420000
C        0.92620000      -0.33300000       2.52660000
N        1.71750000      -1.28880000       2.98380000
O        2.08480000      -2.06410000       1.87450000
H        0.84010000       2.06300000      -0.18580000
H       -0.74970000       1.75270000      -0.92840000
H       -0.61690000       1.89100000       0.82830000
H       -0.00420000      -0.71820000      -1.95150000
H        1.50500000       0.12260000      -1.53380000
H        0.72990000      -2.74000000      -0.78810000
H        2.32780000      -2.08170000      -1.16480000
H        0.52640000       0.38090000       3.23210000
