19
Properties=species:S:1:pos:R:3 gdb_64175=T pbc="F F F"
C       -0.15440000       1.53420000      -0.03150000
C       -0.02810000       0.01440000      -0.04890000
N       -1.32740000      -0.56990000      -0.26470000
C        1.22990000      -0.45910000      -0.83990000
O        1.97260000      -0.62700000       0.38950000
C        0.77240000      -0.56670000       1.18760000
C        0.94420000       0.23820000       2.46600000
C        0.32160000      -1.93790000       1.51240000
N       -0.03030000      -3.01590000       1.73740000
H        0.81010000       2.01630000       0.14220000
H       -0.52350000       1.87870000      -1.00440000
H       -0.86320000       1.86010000       0.73390000
H       -1.78630000      -0.16250000      -1.07190000
H       -1.27920000      -1.57440000      -0.39910000
H        1.08630000      -1.41510000      -1.36080000
H        1.71430000       0.25870000      -1.50960000
H        1.30980000       1.23970000       2.23650000
H       -0.00830000       0.31220000       2.99840000
H        1.66740000      -0.25530000       3.12100000
