16
Properties=species:S:1:pos:R:3 gdb_32500=T pbc="F F F"
C        0.02920000       1.36820000      -0.07030000
N       -0.00750000      -0.05460000       0.20070000
C       -1.21480000      -0.72020000       0.08910000
C       -2.48750000      -0.19020000       0.06340000
N       -3.38050000      -1.25000000       0.00560000
C       -2.72080000      -2.42940000      -0.02010000
C       -1.36210000      -2.15190000       0.03000000
C       -0.29870000      -3.07910000       0.01180000
N        0.60920000      -3.80130000      -0.00960000
H        1.06020000       1.72110000       0.00040000
H       -0.36840000       1.63470000      -1.06330000
H       -0.55800000       1.90690000       0.68260000
H        0.77600000      -0.57480000      -0.16610000
H       -2.83250000       0.82830000       0.09080000
H       -4.37990000      -1.15200000      -0.02010000
H       -3.23230000      -3.37580000      -0.07370000
