14
Properties=species:S:1:pos:R:3 gdb_20820=T pbc="F F F"
C        0.21190000       1.52010000       0.21180000
C       -0.13790000       0.05310000      -0.10050000
C        0.64660000      -0.46710000      -1.26990000
C        1.77980000      -1.27320000      -1.15200000
N        2.44800000      -1.67330000      -2.22130000
N        2.01120000      -1.28530000      -3.41910000
N        0.94010000      -0.53510000      -3.54490000
N        0.24570000      -0.11790000      -2.49140000
H        1.26740000       1.62860000       0.48010000
H        0.01390000       2.15170000      -0.65810000
H       -0.39090000       1.88300000       1.04820000
H        0.05370000      -0.57620000       0.77500000
H       -1.20210000      -0.02400000      -0.34340000
H        2.15650000      -1.60850000      -0.18880000
