16
Properties=species:S:1:pos:R:3 gdb_36256=T pbc="F F F"
C        0.02150000      -1.27670000       0.03220000
C       -0.00910000      -0.08000000      -0.06820000
C       -0.04670000       1.37550000      -0.16400000
N        1.30260000       1.95340000      -0.06970000
C        1.88930000       1.97400000       1.30380000
C        2.69890000       3.26280000       0.98450000
O        2.28300000       3.97740000       2.18050000
C        1.09020000       3.23870000       1.79980000
C        1.33500000       3.41170000       0.25250000
H        0.04680000      -2.33550000       0.10930000
H       -0.46620000       1.66990000      -1.13440000
H       -0.73630000       1.76550000       0.60700000
H        2.19070000       1.07960000       1.84750000
H        3.71330000       3.38140000       0.60970000
H        0.20250000       3.35120000       2.42140000
H        0.99390000       4.19450000      -0.42600000
