15
Properties=species:S:1:pos:R:3 gdb_125031=T pbc="F F F"
C       -0.01840000       1.52080000       0.03050000
C       -0.01890000       0.01890000       0.01290000
C       -1.16230000      -0.72740000       0.04110000
N       -2.42220000      -0.19260000       0.12850000
C       -1.03490000      -2.16490000       0.02730000
N        0.07650000      -2.81040000      -0.01460000
O        1.22980000      -2.06970000      -0.04460000
C        1.25660000      -0.66350000      -0.02960000
O        2.34780000      -0.15360000      -0.05850000
H        1.00840000       1.88420000      -0.01260000
H       -0.56490000       1.93730000      -0.82660000
H       -0.48790000       1.91340000       0.94120000
H       -2.53430000       0.78400000      -0.09100000
H       -3.20260000      -0.77350000      -0.13160000
H       -1.91920000      -2.79670000       0.05570000
