17
Properties=species:S:1:pos:R:3 gdb_65416=T pbc="F F F"
C        0.11540000       1.47980000      -0.20970000
C       -0.05000000       0.00690000       0.10810000
O        1.16100000      -0.78060000       0.13370000
C        0.45100000      -0.62120000       1.35550000
C        1.13040000       0.14360000       2.48150000
C        2.00600000      -0.71560000       3.27180000
C        2.71420000      -1.44260000       3.91440000
C       -1.17250000      -0.62440000      -0.55270000
C       -2.11700000      -1.11710000      -1.10910000
H        1.00040000       1.89530000       0.27410000
H        0.22250000       1.61250000      -1.29000000
H       -0.76700000       2.04050000       0.11280000
H       -0.06590000      -1.52200000       1.68750000
H        1.70520000       0.97960000       2.07260000
H        0.35490000       0.57380000       3.12960000
H        3.34880000      -2.07800000       4.48090000
H       -2.94690000      -1.56440000      -1.59850000
