15
Properties=species:S:1:pos:R:3 gdb_125605=T pbc="F F F"
C       -0.04010000       1.48060000      -0.06020000
C       -0.01580000      -0.01010000       0.03260000
N       -0.01550000      -0.78190000      -1.05640000
N       -0.00060000      -2.03700000      -0.61700000
C        0.01590000      -2.11550000       0.75650000
C        0.04780000      -3.32420000       1.47460000
N        0.08080000      -4.30890000       2.08790000
C        0.00290000      -0.79970000       1.21190000
N       -0.06160000      -0.34840000       2.52100000
H        0.85400000       1.93160000       0.38840000
H       -0.08090000       1.78450000      -1.10780000
H       -0.91090000       1.89910000       0.45710000
H       -0.00280000      -2.80120000      -1.27070000
H        0.21640000      -1.02790000       3.21570000
H        0.39270000       0.54030000       2.67740000
