15
Properties=species:S:1:pos:R:3 gdb_60711=T pbc="F F F"
O        0.81190000       1.57020000      -0.22330000
C        0.15670000       0.37510000       0.10060000
C        0.27040000      -0.62500000      -1.05730000
O        0.88630000      -0.35030000      -2.05430000
C        0.67880000      -0.27630000       1.30710000
C        1.11320000      -0.83940000       2.27730000
C        1.64460000      -1.50160000       3.47000000
C        2.18180000      -2.83760000       3.20580000
C        2.62260000      -3.93480000       3.00000000
H        1.25840000       1.39600000      -1.06810000
H       -0.92120000       0.56900000       0.24370000
H       -0.22970000      -1.60060000      -0.91010000
H        2.43080000      -0.87170000       3.90840000
H        0.85830000      -1.56840000       4.23430000
H        3.01480000      -4.90420000       2.81490000
