19
Properties=species:S:1:pos:R:3 gdb_115254=T pbc="F F F"
C        0.00910000       1.53020000      -0.17020000
C       -0.00590000       0.00630000      -0.03070000
C       -1.42040000      -0.55340000       0.17280000
O       -2.25450000      -0.21740000      -0.94390000
C       -2.85240000      -1.37910000      -1.49830000
C       -2.29020000      -2.53760000      -0.69730000
C       -1.48860000      -2.05110000       0.25570000
C       -2.62200000      -3.88220000      -0.97330000
C       -2.93810000      -5.01120000      -1.25140000
H        1.02510000       1.90060000      -0.33540000
H       -0.61270000       1.84300000      -1.01300000
H       -0.38120000       2.01350000       0.73260000
H        0.42490000      -0.46280000      -0.92310000
H        0.61110000      -0.30280000       0.82300000
H       -1.84700000      -0.09130000       1.08150000
H       -3.94880000      -1.32640000      -1.41360000
H       -2.60830000      -1.46030000      -2.56720000
H       -0.94990000      -2.63140000       0.99300000
H       -3.20710000      -6.01190000      -1.48320000
