19
Properties=species:S:1:pos:R:3 gdb_57786=T pbc="F F F"
C       -0.21790000       1.48600000      -0.03850000
C        0.02230000      -0.03020000      -0.00220000
O       -1.19640000      -0.75220000       0.16970000
C        0.76130000      -0.48580000      -1.18490000
C        1.34310000      -0.83250000      -2.18590000
C        2.00090000      -1.34950000      -3.34630000
C        3.29910000      -2.14980000      -3.18410000
C        2.02470000      -2.86880000      -3.50370000
O        1.40360000      -3.67520000      -2.56090000
H        0.73000000       2.03080000      -0.06820000
H       -0.79610000       1.76090000      -0.92670000
H       -0.77640000       1.78510000       0.85210000
H        0.60530000      -0.27110000       0.89510000
H       -1.70120000      -0.66140000      -0.64650000
H        1.89820000      -0.76260000      -4.25370000
H        4.05080000      -2.03420000      -3.95720000
H        3.68090000      -2.25310000      -2.17520000
H        1.89600000      -3.25070000      -4.51270000
H        0.97360000      -3.10200000      -1.91120000
