19
Properties=species:S:1:pos:R:3 gdb_56505=T pbc="F F F"
C       -0.03800000       1.56820000       0.11270000
C       -0.01910000       0.03250000      -0.01780000
C       -1.38460000      -0.49890000       0.04490000
N       -2.46510000      -0.90740000       0.08720000
C        0.70610000      -0.50940000      -1.30660000
C        0.76560000      -2.05320000      -1.26870000
C        0.01390000      -0.03440000      -2.60250000
C        2.08430000       0.00730000      -1.27860000
N        3.16810000       0.40860000      -1.25480000
H        0.98150000       1.95780000       0.06560000
H       -0.63110000       2.02970000      -0.67970000
H       -0.47620000       1.85550000       1.07110000
H        0.52270000      -0.37780000       0.84310000
H       -0.24720000      -2.46350000      -1.28990000
H        1.31370000      -2.43360000      -2.13380000
H        1.26750000      -2.40770000      -0.36420000
H        0.02700000       1.05340000      -2.69540000
H        0.52360000      -0.45250000      -3.47370000
H       -1.02470000      -0.37640000      -2.61100000
