23
Properties=species:S:1:pos:R:3 gdb_59667=T pbc="F F F"
C       -1.53390000      -0.51130000      -0.07850000
C       -0.10080000       0.03330000      -0.01450000
C       -0.10230000       1.56510000       0.10790000
C        0.71230000      -0.57430000       1.13120000
O        0.03380000      -0.48260000       2.41480000
C        0.09410000      -1.91110000       2.61900000
C        0.81980000      -2.09420000       1.29190000
C        0.68500000      -3.18720000       0.27700000
C        1.99670000      -2.97170000       0.99800000
H       -2.06890000      -0.27330000       0.84540000
H       -2.07970000      -0.06060000      -0.91330000
H       -1.55360000      -1.59630000      -0.21150000
H        0.42540000      -0.23810000      -0.94240000
H       -0.56470000       1.87040000       1.05240000
H        0.91490000       1.97050000       0.08520000
H       -0.66690000       2.02480000      -0.70940000
H        1.68930000      -0.06990000       1.18420000
H        0.66760000      -2.17230000       3.51830000
H       -0.90720000      -2.35670000       2.68870000
H        0.08980000      -4.05630000       0.54050000
H        0.62850000      -2.91320000      -0.77160000
H        2.82300000      -2.54530000       0.43720000
H        2.29510000      -3.69570000       1.74990000
