13
Properties=species:S:1:pos:R:3 gdb_4588=T pbc="F F F"
N        0.01720000       1.40750000       0.18620000
C        0.00760000       0.01560000       0.04810000
C       -1.17540000      -0.73280000       0.05340000
N       -1.20310000      -2.06020000      -0.01110000
C       -0.02040000      -2.66200000      -0.08190000
O       -0.04660000      -4.00690000      -0.14400000
N        1.17470000      -2.07200000      -0.10110000
C        1.17820000      -0.74190000      -0.03600000
H        0.83340000       1.85620000      -0.20660000
H       -0.82510000       1.85990000      -0.14200000
H       -2.14050000      -0.23020000       0.11240000
H        0.87610000      -4.28920000      -0.19040000
H        2.15260000      -0.25530000      -0.05090000
