19
Properties=species:S:1:pos:R:3 gdb_115994=T pbc="F F F"
C       -0.02440000       1.59200000      -0.16590000
C        0.01350000       0.06300000      -0.11450000
C       -1.36600000      -0.54850000       0.14800000
O       -2.29120000      -0.17280000      -0.88930000
C       -2.86270000      -1.31890000      -1.50110000
C       -2.24210000      -2.48980000      -0.80610000
C       -1.39810000      -2.06060000       0.13750000
C       -0.64780000      -2.92650000       1.04980000
O        0.09510000      -2.52780000       1.92000000
H        0.96920000       2.00140000      -0.37050000
H       -0.70600000       1.93670000      -0.94810000
H       -0.36740000       2.00970000       0.78730000
H        0.39720000      -0.33910000      -1.06040000
H        0.68300000      -0.28050000       0.68090000
H       -1.74350000      -0.16280000       1.10850000
H       -3.95930000      -1.31220000      -1.38530000
H       -2.65800000      -1.32080000      -2.58380000
H       -2.46910000      -3.52280000      -1.04350000
H       -0.81620000      -4.01470000       0.89220000
