18
Properties=species:S:1:pos:R:3 gdb_18938=T pbc="F F F"
C       -0.03510000       1.58680000       0.00680000
C        1.50670000       1.72840000       0.04280000
C        1.73800000       1.08640000       1.43110000
C        1.27580000      -0.29010000       0.91970000
O        2.35210000      -0.52280000      -0.00560000
C        1.98340000       0.52150000      -0.92350000
C        0.67130000      -0.10390000      -1.43040000
C        0.01380000       0.03940000      -0.03750000
H       -0.50730000       2.01430000       0.89420000
H       -0.52270000       2.00730000      -0.87570000
H        1.94350000       2.70620000      -0.15340000
H        2.77570000       1.02950000       1.76230000
H        1.12630000       1.55110000       2.20770000
H        1.17890000      -1.12310000       1.61380000
H        2.79410000       0.72380000      -1.62130000
H        0.13040000       0.44990000      -2.20110000
H        0.85350000      -1.12500000      -1.76800000
H       -0.90170000      -0.51540000       0.16120000
