23
Properties=species:S:1:pos:R:3 gdb_70306=T pbc="F F F"
C        0.01300000       1.50320000       0.00280000
C       -0.03370000      -0.01110000       0.02170000
C       -0.87440000      -0.69760000       1.07240000
C        0.63410000      -0.75010000       1.16220000
C        1.41220000      -2.01140000       0.78510000
C        2.29600000      -1.76420000      -0.43820000
C        2.04760000      -2.48840000      -1.73810000
C        1.61390000      -1.05100000      -1.58530000
C        0.14810000      -0.69390000      -1.34120000
H        0.94170000       1.86700000      -0.45370000
H       -0.82310000       1.92110000      -0.57150000
H       -0.04060000       1.91560000       1.01570000
H       -1.41020000      -0.07910000       1.78600000
H       -1.39850000      -1.60990000       0.79960000
H        1.09180000      -0.13420000       1.93200000
H        2.01960000      -2.34920000       1.63010000
H        0.71230000      -2.82840000       0.57560000
H        3.32320000      -1.48510000      -0.22400000
H        2.89550000      -2.70730000      -2.37870000
H        1.27410000      -3.25180000      -1.75360000
H        2.19590000      -0.30810000      -2.12220000
H       -0.46270000      -1.60200000      -1.38630000
H       -0.22300000      -0.04250000      -2.13930000
