20
Properties=species:S:1:pos:R:3 gdb_31782=T pbc="F F F"
C       -0.70410000       0.90350000      -0.05560000
N        0.48310000       0.06920000       0.16370000
C        0.99630000      -0.56880000      -0.98450000
C        1.78010000      -0.12380000      -2.02410000
C        2.01400000      -1.22530000      -2.89570000
C        1.34560000      -2.30900000      -2.36940000
N        1.14570000      -3.61820000      -2.85410000
N        0.72480000      -1.91600000      -1.20780000
C       -0.06920000      -2.77250000      -0.35530000
H       -0.54970000       1.70720000      -0.79160000
H       -1.52640000       0.27700000      -0.41400000
H       -1.01030000       1.35170000       0.89520000
H        1.20620000       0.60900000       0.62310000
H        2.15420000       0.88270000      -2.13880000
H        2.59960000      -1.22750000      -3.80280000
H        1.50820000      -3.70000000      -3.79600000
H        1.60880000      -4.32170000      -2.28460000
H        0.52530000      -3.60400000       0.04140000
H       -0.42150000      -2.17080000       0.48290000
H       -0.91860000      -3.19080000      -0.90410000
