19
Properties=species:S:1:pos:R:3 gdb_107760=T pbc="F F F"
C       -0.09680000       1.55330000       0.01910000
C       -0.07810000       0.02130000       0.00880000
C       -1.45450000      -0.59060000       0.02940000
C       -1.65140000      -2.12840000       0.02240000
C       -3.16950000      -2.05790000       0.05030000
C       -3.45620000      -0.77130000       0.81830000
O       -2.21990000      -0.18910000       1.17380000
C       -3.48350000      -0.76100000      -0.68900000
O       -2.26060000      -0.17370000      -1.08100000
H        0.92260000       1.94940000       0.00360000
H       -0.63120000       1.93770000      -0.85280000
H       -0.59980000       1.92620000       0.91440000
H        0.43700000      -0.35140000      -0.88310000
H        0.46840000      -0.36280000       0.87680000
H       -1.25210000      -2.58570000      -0.88540000
H       -1.21970000      -2.59810000       0.90880000
H       -3.82470000      -2.91720000       0.05630000
H       -4.27540000      -0.58050000       1.49540000
H       -4.32650000      -0.56110000      -1.33350000
