15
Properties=species:S:1:pos:R:3 gdb_26549=T pbc="F F F"
C       -0.01900000       1.54920000       0.02500000
C        0.00210000       0.04970000      -0.00620000
C       -0.01540000      -0.65770000      -1.14770000
O       -0.05290000      -0.13590000      -2.38260000
O        0.00360000      -2.02610000      -1.18470000
C        0.04210000      -2.66180000       0.02430000
N        0.06210000      -2.11780000       1.16310000
C        0.04390000      -0.69720000       1.25090000
N        0.06310000      -0.09280000       2.37760000
H        0.86780000       1.92840000       0.54280000
H       -0.05660000       1.97230000      -0.97990000
H       -0.88250000       1.90190000       0.59770000
H       -0.05920000      -0.85990000      -3.02040000
H        0.05400000      -3.73760000      -0.11990000
H        0.09130000      -0.78780000       3.12550000
