19
Properties=species:S:1:pos:R:3 gdb_41473=T pbc="F F F"
C        0.14290000       1.56640000       0.42270000
C        1.58940000       1.54680000      -0.17620000
C        1.37020000       0.08580000      -0.61180000
C        1.83230000      -0.57480000      -1.89170000
O        1.55150000      -1.95910000      -1.70670000
C        1.84280000      -2.26750000      -0.34470000
C        1.47790000      -1.02550000       0.46790000
O        0.07440000      -0.92130000       0.80280000
C       -0.11000000       0.14250000      -0.14980000
H        0.08840000       1.59200000       1.51280000
H       -0.50460000       2.34660000       0.01610000
H        1.69760000       2.22490000      -1.02760000
H        2.41790000       1.73120000       0.51290000
H        1.29450000      -0.24410000      -2.78520000
H        2.91150000      -0.40220000      -2.05270000
H        1.26100000      -3.14750000      -0.06020000
H        2.91620000      -2.48640000      -0.21770000
H        2.12020000      -0.87290000       1.34200000
H       -0.97990000      -0.01630000      -0.79190000
