13
Properties=species:S:1:pos:R:3 gdb_5719=T pbc="F F F"
C        0.03610000       1.39500000      -0.12080000
O        1.26840000       1.92870000       0.38830000
C        1.97710000       0.80480000       0.73130000
C        3.21630000       0.43020000       1.16360000
N        3.10170000      -0.92600000       1.45780000
C        1.82650000      -1.40340000       1.16670000
C        1.13030000      -0.31250000       0.73320000
O       -0.14390000       0.06540000       0.39150000
H       -0.79250000       2.02370000       0.21220000
H        0.08890000       1.35310000      -1.21980000
H        4.13730000       0.96480000       1.31590000
H        3.89640000      -1.52820000       1.58050000
H        1.56080000      -2.43420000       1.32170000
