16
Properties=species:S:1:pos:R:3 gdb_66418=T pbc="F F F"
C       -0.01200000       1.62540000      -0.01130000
C        0.09690000       0.13060000      -0.01770000
C        0.68530000      -0.85450000      -0.99590000
N        1.31870000      -1.58760000       0.10090000
C        0.72830000      -0.75140000       1.06950000
O        0.75260000      -0.76540000       2.26510000
C       -0.82380000      -0.78420000      -0.86960000
C       -1.66930000      -1.87060000      -0.30620000
O       -2.77180000      -2.13030000      -0.72230000
H        0.94900000       2.08400000       0.24200000
H       -0.32610000       2.00530000      -0.98780000
H       -0.74630000       1.95430000       0.73060000
H        1.21310000      -0.66710000      -1.92190000
H        1.35600000      -2.59760000       0.17750000
H       -1.31980000      -0.24440000      -1.67300000
H       -1.22800000      -2.44070000       0.53820000
