16
Properties=species:S:1:pos:R:3 gdb_78148=T pbc="F F F"
C       -0.03530000       1.45870000       0.05000000
C        0.06780000      -0.03900000      -0.05840000
C        0.77030000      -0.69600000      -1.20150000
N        1.41170000      -0.62790000       0.12860000
C        1.35770000      -1.95310000       0.67020000
N        1.77750000      -2.21920000       1.83210000
N        0.79120000      -2.79140000      -0.29940000
C        0.43680000      -2.13650000      -1.47370000
O       -0.00210000      -2.64520000      -2.47360000
H        0.83640000       1.94070000      -0.39900000
H       -0.93720000       1.81700000      -0.45640000
H       -0.08860000       1.75970000       1.10070000
H       -0.75700000      -0.59990000       0.37840000
H        1.19410000      -0.10660000      -2.00690000
H        1.65170000      -3.20440000       2.06160000
H        0.64520000      -3.78140000      -0.17410000
