16
Properties=species:S:1:pos:R:3 gdb_25952=T pbc="F F F"
C       -0.03190000       1.47600000      -0.14280000
C       -0.00170000       0.00140000       0.15560000
N       -0.10260000      -0.57830000       1.28300000
O        0.15660000      -0.68410000      -1.00070000
C        0.22410000      -2.04720000      -1.07860000
C        0.38300000      -2.80810000      -2.20610000
N        0.40140000      -4.13890000      -1.85740000
C        0.25660000      -4.16840000      -0.55210000
N        0.14320000      -2.91610000      -0.02080000
H        0.89710000       1.77820000      -0.63510000
H       -0.85260000       1.70310000      -0.82960000
H       -0.15850000       2.05530000       0.77260000
H       -0.21520000       0.10250000       2.02860000
H        0.48270000      -2.47290000      -3.22580000
H        0.22600000      -5.05450000       0.06340000
H        0.02300000      -2.59400000       0.93030000
