18
Properties=species:S:1:pos:R:3 gdb_47650=T pbc="F F F"
N       -0.06510000       1.35370000      -0.08150000
C        0.03770000       0.09710000      -0.01520000
O       -1.04170000      -0.71850000      -0.04170000
C       -1.84750000      -0.66450000      -1.21890000
C       -1.06090000      -1.23960000      -2.41820000
C       -0.37170000      -2.52240000      -2.03580000
C        0.76170000      -2.59000000      -1.33350000
C        1.62840000      -1.41040000      -0.95390000
O        1.19930000      -0.58690000       0.16590000
H        0.86300000       1.77400000      -0.05680000
H       -2.72300000      -1.27690000      -0.99000000
H       -2.16470000       0.36450000      -1.41500000
H       -1.74870000      -1.38700000      -3.25680000
H       -0.32970000      -0.48580000      -2.73510000
H       -0.89380000      -3.44750000      -2.26980000
H        1.13150000      -3.56440000      -1.02640000
H        2.61510000      -1.75800000      -0.64530000
H        1.76400000      -0.74290000      -1.81560000
