15
Properties=species:S:1:pos:R:3 gdb_35647=T pbc="F F F"
C        0.08150000      -1.22340000       0.04930000
C        0.00610000      -0.02140000       0.04530000
C       -0.02570000       1.39130000       0.04930000
C       -1.09810000       2.18150000      -0.07360000
C       -0.69200000       3.63820000      -0.04850000
N        0.70790000       3.58170000       0.39550000
C        1.23310000       2.22650000       0.17820000
C       -0.86900000       4.26280000      -1.38130000
N       -0.97390000       4.76860000      -2.41580000
H        0.13120000      -2.28440000       0.04850000
H       -2.12250000       1.86380000      -0.20590000
H       -1.29940000       4.22150000       0.65820000
H        1.27780000       4.30120000      -0.02910000
H        1.84800000       1.90650000       1.02790000
H        1.85000000       2.12190000      -0.72870000
