18
Properties=species:S:1:pos:R:3 gdb_24350=T pbc="F F F"
C       -0.03000000       1.53400000      -0.00220000
C        1.39960000       2.10170000       0.00950000
N        2.20720000       1.67000000       1.15610000
C        1.95570000       0.36820000       1.61150000
C        2.56940000      -0.35370000       2.59160000
O        1.98470000      -1.58680000       2.69550000
C        1.00440000      -1.64430000       1.76030000
C        0.92880000      -0.48060000       1.06220000
C        0.00680000      -0.00640000      -0.02240000
H       -0.56710000       1.88050000       0.88950000
H       -0.56790000       1.91440000      -0.87700000
H        1.90720000       1.79020000      -0.91490000
H        1.38250000       3.19500000       0.00330000
H        2.23370000       2.35360000       1.89860000
H        3.37000000      -0.14860000       3.28130000
H        0.44800000      -2.56690000       1.72010000
H       -0.99890000      -0.42190000       0.10020000
H        0.36180000      -0.34020000      -1.00730000
