17
Properties=species:S:1:pos:R:3 gdb_128368=T pbc="F F F"
C        0.04660000       1.41330000       0.17480000
N       -0.04870000       0.01980000      -0.22500000
C       -1.24120000      -0.65350000      -0.09320000
N       -1.23880000      -1.96600000       0.07110000
O       -2.61740000      -2.32280000       0.09130000
C       -3.34220000      -1.21200000      -0.04090000
O       -4.66650000      -1.30930000      -0.04140000
C       -5.22380000      -2.62120000       0.10360000
C       -2.55560000      -0.10560000      -0.16010000
H        1.06050000       1.76690000      -0.02580000
H       -0.63700000       2.02250000      -0.42420000
H       -0.18030000       1.58690000       1.23740000
H        0.74290000      -0.55300000       0.03220000
H       -6.30430000      -2.48190000       0.07970000
H       -4.90900000      -3.27150000      -0.71740000
H       -4.92210000      -3.07040000       1.05400000
H       -2.87120000       0.91390000      -0.28640000
