15
Properties=species:S:1:pos:R:3 gdb_129363=T pbc="F F F"
N       -0.01800000       1.23830000       0.40670000
C       -0.05480000       0.02940000       0.05110000
O       -1.12280000      -0.73150000       0.36740000
C       -1.04410000      -2.11390000       0.02380000
C       -2.43120000      -2.66770000       0.03080000
N       -2.66740000      -3.95920000       0.26760000
N       -3.98580000      -4.04790000       0.15270000
N       -4.63640000      -2.92820000      -0.12610000
C       -3.65860000      -2.02580000      -0.21250000
H        0.84020000       1.67340000       0.07490000
H        0.71270000      -0.50840000      -0.52350000
H       -0.58630000      -2.22610000      -0.96950000
H       -0.42080000      -2.65850000       0.74320000
H       -4.46910000      -4.92080000       0.29030000
H       -3.86400000      -0.98930000      -0.42100000
