20
Properties=species:S:1:pos:R:3 gdb_63036=T pbc="F F F"
C       -0.02020000       1.57300000       0.04760000
C        0.08310000       0.06500000       0.07010000
O       -1.08280000      -0.57560000      -0.40030000
C        1.33570000      -0.72890000      -0.21820000
C        2.59920000      -0.06840000       0.35220000
C        1.92790000      -0.10040000       1.74420000
C        2.59920000      -0.39640000       3.02500000
N        1.95080000       0.91480000       2.79900000
C        0.68040000      -0.74340000       1.18470000
H        0.85030000       2.05820000       0.49170000
H       -0.12170000       1.93670000      -0.98310000
H       -0.90460000       1.88940000       0.60820000
H       -1.17210000      -0.36630000      -1.33680000
H        1.32170000      -1.51690000      -0.96090000
H        3.48050000      -0.71330000       0.29760000
H        2.86120000       0.91620000      -0.05170000
H        2.10980000      -1.02130000       3.76800000
H        3.68550000      -0.45220000       3.03210000
H        2.65910000       1.61520000       2.59040000
H        0.09910000      -1.52510000       1.65810000
