17
Properties=species:S:1:pos:R:3 gdb_72110=T pbc="F F F"
C        0.00330000       1.53950000       0.02460000
C        0.03630000       0.03440000       0.01670000
C       -1.26510000      -0.79080000      -0.18340000
C       -0.68740000      -2.07630000       0.44640000
O       -0.42820000      -1.62800000       1.80980000
C        0.63360000      -0.88830000       1.20570000
C        0.84190000      -1.94470000       0.07220000
C        0.97370000      -0.77700000      -0.89330000
O        1.67070000      -0.51940000      -1.83230000
H        1.00410000       1.95680000       0.17340000
H       -0.37320000       1.92460000      -0.92890000
H       -0.64740000       1.91670000       0.82040000
H       -2.10860000      -0.42340000       0.40530000
H       -1.55510000      -0.88190000      -1.23380000
H       -1.23160000      -3.01720000       0.38520000
H        1.39630000      -0.49370000       1.87320000
H        1.49480000      -2.81020000       0.13410000
