23
Properties=species:S:1:pos:R:3 gdb_41744=T pbc="F F F"
C        0.00170000       1.56540000      -0.02230000
C        1.55280000       1.78500000      -0.03490000
C        2.00130000       0.31670000       0.01760000
C        1.06020000      -0.36960000      -1.02030000
C        1.29960000      -1.87580000      -1.16920000
C        0.93840000      -2.62030000       0.12810000
C        1.30700000      -1.78310000       1.36530000
C        1.06630000      -0.29170000       1.10820000
C       -0.02860000       0.02910000       0.03390000
H       -0.48140000       2.02290000       0.84650000
H       -0.48650000       1.95830000      -0.91950000
H        1.89830000       2.29520000      -0.93930000
H        1.90340000       2.35990000       0.82780000
H        3.07540000       0.11250000       0.02200000
H        0.99100000       0.12100000      -1.99820000
H        0.70720000      -2.27370000      -2.00120000
H        2.35170000      -2.04470000      -1.43510000
H       -0.14330000      -2.79500000       0.13760000
H        1.40790000      -3.60860000       0.16290000
H        0.71950000      -2.11900000       2.22770000
H        2.36070000      -1.93220000       1.63670000
H        1.00260000       0.26900000       2.04800000
H       -1.01170000      -0.44630000       0.05420000
