20
Properties=species:S:1:pos:R:3 gdb_92873=T pbc="F F F"
C       -0.21810000       1.53790000       0.14470000
C        0.03190000       0.01960000      -0.01680000
N        0.76030000      -0.39430000      -1.21770000
C        0.05890000      -0.15590000      -2.46420000
C        2.15190000       0.00750000      -1.26360000
C        2.86760000      -0.28000000       0.01890000
C        2.22340000      -0.56030000       1.15640000
C        0.75250000      -0.49590000       1.23350000
O        0.13980000      -0.75290000       2.25040000
H        0.72130000       2.09740000       0.20410000
H       -0.80090000       1.93320000      -0.69190000
H       -0.77810000       1.71820000       1.06620000
H       -0.93970000      -0.48520000      -0.03820000
H       -0.01130000       0.90940000      -2.75030000
H        0.57100000      -0.68220000      -3.27750000
H       -0.95810000      -0.55430000      -2.39410000
H        2.64340000      -0.54280000      -2.07820000
H        2.29690000       1.08160000      -1.51480000
H        3.95370000      -0.25350000      -0.01530000
H        2.74360000      -0.79870000       2.07860000
