19
Properties=species:S:1:pos:R:3 gdb_57849=T pbc="F F F"
C        0.24260000       1.26890000       1.38820000
C       -0.21270000       0.61010000       0.07500000
C        0.64790000      -0.52390000      -0.27010000
N        1.31880000      -1.42610000      -0.54020000
C       -1.70030000       0.15690000       0.18200000
O       -2.26720000       0.23360000       1.25620000
N       -2.30920000      -0.29150000      -0.95430000
C       -3.67820000      -0.78210000      -0.86070000
C       -1.69190000      -0.44080000      -2.26130000
H        1.28320000       1.59090000       1.30450000
H       -0.38840000       2.13320000       1.60050000
H        0.14570000       0.56940000       2.21870000
H       -0.12720000       1.34260000      -0.73670000
H       -4.32740000      -0.22890000      -1.54930000
H       -3.72230000      -1.84580000      -1.12490000
H       -4.02670000      -0.64600000       0.16080000
H       -0.76120000       0.11660000      -2.34010000
H       -1.47440000      -1.49310000      -2.48320000
H       -2.37690000      -0.06240000      -3.02850000
