13
Properties=species:S:1:pos:R:3 gdb_133233=T pbc="F F F"
C       -0.03190000       1.44790000      -0.02400000
N       -0.00200000      -0.01130000      -0.01380000
N       -0.02860000      -0.62460000      -1.19910000
C       -0.00150000      -1.91220000      -1.16930000
F       -0.02660000      -2.55790000      -2.32600000
C        0.05360000      -2.65090000       0.04860000
N        0.07950000      -2.06050000       1.19970000
C        0.05270000      -0.66370000       1.23960000
O        0.07320000      -0.00900000       2.25710000
H        0.86140000       1.83840000       0.46940000
H       -0.07370000       1.76980000      -1.06290000
H       -0.90450000       1.80250000       0.52960000
H        0.07430000      -3.73970000       0.01200000
