16
Properties=species:S:1:pos:R:3 gdb_30176=T pbc="F F F"
C        0.23980000       1.48960000       0.09020000
C        0.04150000      -0.00810000      -0.02580000
C        0.73810000      -0.66270000      -1.29420000
C        1.41710000      -1.77990000      -0.59240000
C        1.30860000      -1.67920000       0.74020000
O        0.57560000      -0.64150000       1.19740000
N        2.01990000      -2.65780000       1.38300000
C        2.54140000      -3.31150000       0.38140000
O        2.23580000      -2.84190000      -0.86140000
H        1.30590000       1.73380000       0.12110000
H       -0.20860000       1.99760000      -0.76990000
H       -0.22930000       1.87060000       1.00110000
H       -1.02500000      -0.25610000      -0.04110000
H       -0.01080000      -0.95530000      -2.03740000
H        1.42800000       0.04150000      -1.77880000
H        3.17460000      -4.18320000       0.41990000
