18
Properties=species:S:1:pos:R:3 gdb_92294=T pbc="F F F"
O        0.04260000       1.41380000      -0.09100000
C        0.00770000       0.02020000      -0.04890000
C        0.38780000      -0.75180000       1.24920000
C       -0.76230000      -1.75240000       0.92410000
C       -1.67830000      -2.25080000       2.03370000
N       -2.57770000      -1.23700000       2.57320000
C       -2.78710000      -0.19130000       1.90190000
O       -2.28880000       0.19540000       0.69330000
C       -1.38070000      -0.67790000      -0.00170000
H       -0.70570000       1.72210000       0.43560000
H        0.58680000      -0.34820000      -0.90130000
H        1.40150000      -1.14830000       1.32890000
H        0.16670000      -0.15730000       2.14100000
H       -0.38950000      -2.58760000       0.32470000
H       -2.29670000      -3.08070000       1.66580000
H       -1.09060000      -2.65800000       2.86490000
H       -3.45660000       0.58410000       2.27070000
H       -1.86800000      -0.97410000      -0.93340000
