17
Properties=species:S:1:pos:R:3 gdb_51291=T pbc="F F F"
O       -0.40370000       0.06840000      -0.04360000
C       -0.09480000       1.22800000      -0.07930000
N        1.18950000       1.74680000      -0.10810000
C        2.40860000       1.07120000      -0.09860000
N        2.54780000      -0.19070000      -0.22040000
C        3.97610000      -0.50840000      -0.08370000
C        4.73980000       0.81630000       0.00950000
C        4.59590000       1.75870000      -1.14960000
C        3.66210000       1.88090000       0.04130000
H       -0.83280000       2.05730000      -0.08820000
H        1.24900000       2.75340000      -0.12130000
H        4.11940000      -1.11890000       0.81670000
H        4.29820000      -1.12040000      -0.93450000
H        5.61840000       0.88970000       0.63860000
H        5.34860000       2.53150000      -1.26150000
H        4.18370000       1.38620000      -2.08240000
H        3.69100000       2.76120000       0.67410000
