15
Properties=species:S:1:pos:R:3 gdb_11580=T pbc="F F F"
C       -0.24210000       1.46900000       0.00220000
C        0.06030000      -0.01550000       0.04080000
O        0.25490000      -0.62420000       1.07260000
C        0.10340000      -0.67650000      -1.24770000
C        0.14640000      -1.23890000      -2.31800000
C        0.17770000      -1.92830000      -3.57010000
C        1.22500000      -2.97830000      -3.79610000
N       -0.16920000      -3.37200000      -3.62460000
H        0.50680000       1.99090000      -0.60310000
H       -1.21420000       1.64240000      -0.47200000
H       -0.24560000       1.86650000       1.01810000
H       -0.17850000      -1.36820000      -4.43020000
H        1.61980000      -3.10200000      -4.80020000
H        1.93150000      -3.15830000      -2.99170000
H       -0.32010000      -3.71080000      -2.67700000
