19
Properties=species:S:1:pos:R:3 gdb_8459=T pbc="F F F"
C       -0.10290000       1.51860000       0.00630000
C        0.08310000       0.00860000       0.01040000
C        0.99260000      -0.58040000      -1.11810000
C        1.96850000      -1.33690000      -0.20650000
O        2.95150000      -2.04270000      -0.89110000
C        0.99570000      -1.93170000       0.85350000
N        0.76660000      -0.49120000       1.26050000
C        2.22330000      -0.27480000       0.89940000
H        0.85180000       2.05370000       0.01070000
H       -0.64880000       1.82910000      -0.89060000
H       -0.67270000       1.83390000       0.88530000
H       -0.90590000      -0.46030000      -0.00940000
H        0.46600000      -1.25020000      -1.80310000
H        1.50230000       0.18570000      -1.71000000
H        3.52200000      -2.47410000      -0.24640000
H        0.10320000      -2.47200000       0.52390000
H        1.49710000      -2.47750000       1.65810000
H        2.86180000      -0.62790000       1.71420000
H        2.50400000       0.74260000       0.61740000
