16
Properties=species:S:1:pos:R:3 gdb_48693=T pbc="F F F"
O       -0.17440000      -0.04330000       0.14130000
C       -0.03790000       1.13470000      -0.07320000
C        1.25270000       1.84160000      -0.11380000
C        1.35650000       3.30760000       0.29430000
C        1.74290000       2.92530000      -1.09200000
C        3.10610000       2.20160000      -1.07170000
N        2.53440000       1.15350000      -0.16190000
C        3.56420000       1.68010000      -2.34930000
C        3.94390000       1.28050000      -3.41690000
H       -0.91230000       1.80590000      -0.24700000
H        0.41310000       3.83740000       0.38710000
H        2.11060000       3.58640000       1.02620000
H        1.24910000       3.29260000      -1.98110000
H        3.90110000       2.80650000      -0.61580000
H        3.00910000       1.06100000       0.73210000
H        4.27880000       0.91120000      -4.35460000
