16
Properties=species:S:1:pos:R:3 gdb_25804=T pbc="F F F"
C        0.02690000       1.49220000       0.02190000
C        0.01300000      -0.01950000      -0.00920000
O        1.03050000      -0.69690000      -0.03840000
C       -1.29170000      -0.67600000      -0.00650000
N       -2.49740000      -0.13710000       0.03040000
C       -3.37390000      -1.18070000       0.02850000
C       -2.68800000      -2.38870000      -0.01650000
N       -3.12280000      -3.70510000      -0.11430000
N       -1.37040000      -2.05160000      -0.04100000
H        1.05960000       1.84210000       0.02420000
H       -0.50630000       1.89440000      -0.84500000
H       -0.50000000       1.85940000       0.90780000
H       -4.44350000      -1.03500000       0.05940000
H       -4.11940000      -3.78990000       0.03320000
H       -2.63120000      -4.35130000       0.49130000
H       -0.56210000      -2.65030000      -0.10770000
