16
Properties=species:S:1:pos:R:3 gdb_50655=T pbc="F F F"
O       -0.11230000      -0.01260000      -0.14220000
C       -0.03350000       1.17940000       0.00360000
C        1.27910000       1.93280000       0.08930000
C        1.37800000       2.82090000       1.33810000
O        2.64370000       3.43970000       1.35140000
C        3.69260000       2.50100000       1.53170000
C        3.57420000       1.20270000       0.72920000
O        4.47260000       0.38630000       0.73380000
N        2.39760000       1.02200000       0.06120000
H       -0.93740000       1.82420000       0.05480000
H        1.28750000       2.61260000      -0.78270000
H        0.62930000       3.61670000       1.30850000
H        1.21890000       2.21550000       2.24520000
H        4.62250000       2.99740000       1.24640000
H        3.78010000       2.20800000       2.58970000
H        2.25030000       0.11620000      -0.36520000
