19
Properties=species:S:1:pos:R:3 gdb_8524=T pbc="F F F"
C       -0.13490000       1.57960000       0.00270000
C       -0.05080000       0.05680000      -0.00430000
C       -1.39030000      -0.59150000      -0.34430000
C        1.19980000      -0.57470000      -0.65530000
C        2.15160000      -0.22700000       0.53010000
C        2.56420000      -1.69050000       0.60470000
N        1.09300000      -1.84160000       0.24140000
C        0.76260000      -0.60710000       1.12890000
H        0.82230000       2.05000000       0.24590000
H       -0.45280000       1.95390000      -0.97700000
H       -0.87280000       1.92280000       0.73660000
H       -1.73750000      -0.26770000      -1.33240000
H       -1.31020000      -1.68020000      -0.34460000
H       -2.15740000      -0.29910000       0.38220000
H        1.46330000      -0.67430000      -1.71190000
H        2.73800000       0.68320000       0.69040000
H        3.24380000      -2.07780000      -0.16210000
H        2.81580000      -2.10950000       1.58490000
H        0.50880000      -0.74500000       2.18350000
