18
Properties=species:S:1:pos:R:3 gdb_124496=T pbc="F F F"
C       -0.03170000       1.55890000       0.00410000
C       -0.04560000       0.01910000      -0.02500000
C       -1.48600000      -0.52360000       0.00010000
C        0.72020000      -0.51240000      -1.20100000
C        1.88300000      -1.25000000      -1.27240000
N        2.74330000      -1.69750000      -0.30640000
O        2.19350000      -1.48460000      -2.53450000
N        1.11860000      -0.82600000      -3.33040000
N        0.34200000      -0.30920000      -2.50130000
H        0.99110000       1.94520000       0.04250000
H       -0.50780000       1.95890000      -0.89640000
H       -0.57620000       1.93630000       0.87570000
H        0.46630000      -0.33650000       0.88080000
H       -2.02290000      -0.21570000      -0.90220000
H       -1.49870000      -1.61700000       0.03940000
H       -2.03000000      -0.14100000       0.86970000
H        2.34380000      -1.80910000       0.61280000
H        3.33650000      -2.46500000      -0.58500000
