16
Properties=species:S:1:pos:R:3 gdb_42271=T pbc="F F F"
O       -0.11460000      -0.06030000      -0.06060000
C       -0.11380000       1.15440000       0.03240000
C        1.10050000       1.95630000      -0.06590000
C        2.11950000       2.58710000      -0.16760000
N       -1.23410000       1.88690000       0.28320000
C       -1.56290000       3.31640000       0.10340000
C       -3.03650000       2.90670000      -0.05820000
C       -3.18250000       1.88380000      -1.15830000
C       -2.61690000       1.45790000       0.16660000
H        3.02880000       3.12980000      -0.25710000
H       -1.36380000       3.90050000       1.00700000
H       -1.08150000       3.79450000      -0.75580000
H       -3.87360000       3.44190000       0.36600000
H       -4.20140000       1.56130000      -1.34800000
H       -2.54270000       1.91360000      -2.03590000
H       -3.02040000       0.67700000       0.79670000
