19
Properties=species:S:1:pos:R:3 gdb_35460=T pbc="F F F"
C       -0.08310000      -1.23740000      -0.17730000
C       -0.04260000      -0.04060000      -0.06420000
C        0.00800000       1.40640000       0.06290000
C       -0.58370000       1.97640000       1.40390000
C        0.58620000       2.86140000       1.95100000
C        1.16840000       3.41670000       0.63030000
C        1.46880000       2.01350000       0.05860000
C        2.21260000       1.39080000       1.22890000
C        1.69340000       1.89850000       2.35090000
H       -0.12260000      -2.29360000      -0.27620000
H       -0.53690000       1.84360000      -0.78190000
H       -1.47490000       2.57850000       1.20450000
H       -0.86020000       1.18180000       2.09820000
H        0.27810000       3.58540000       2.70610000
H        0.44490000       3.98640000       0.03660000
H        2.07230000       4.01130000       0.78070000
H        1.95410000       1.95370000      -0.91530000
H        2.94460000       0.59930000       1.13860000
H        1.91460000       1.60600000       3.36990000
