25
Properties=species:S:1:pos:R:3 gdb_115591=T pbc="F F F"
C       -0.10590000       1.61870000       0.09510000
C        0.04950000       0.10140000      -0.06000000
C        0.72390000      -0.54540000       1.14500000
C       -0.02970000      -0.60460000       2.50320000
C        0.57220000      -2.01350000       2.74280000
C        0.91990000      -2.10320000       1.22350000
C       -0.11740000      -2.91330000       0.44200000
C        2.33030000      -2.57410000       0.89630000
O        2.44850000      -3.94570000       1.25330000
H        0.86840000       2.10700000       0.21070000
H       -0.59870000       2.06030000      -0.77680000
H       -0.70550000       1.86740000       0.97730000
H       -0.93780000      -0.34920000      -0.21830000
H        0.63180000      -0.11350000      -0.96630000
H        1.70020000      -0.06550000       1.29950000
H        0.19390000       0.17160000       3.23900000
H       -1.11530000      -0.63760000       2.36290000
H        1.47110000      -1.98140000       3.36510000
H       -0.09230000      -2.78480000       3.13950000
H       -1.13930000      -2.62720000       0.70950000
H       -0.00360000      -2.77550000      -0.63930000
H        0.00640000      -3.97710000       0.66020000
H        2.53090000      -2.42530000      -0.17890000
H        3.05700000      -1.96170000       1.45440000
H        3.33690000      -4.23970000       1.03340000
