15
Properties=species:S:1:pos:R:3 gdb_34648=T pbc="F F F"
N        0.05110000      -1.18620000      -0.25400000
C       -0.03650000      -0.04860000      -0.05490000
C       -0.08500000       1.36040000       0.20680000
C       -1.25860000       1.99200000       0.09700000
C       -1.53730000       3.43440000       0.38340000
O       -0.54960000       4.39630000       0.02360000
C        0.72600000       4.31800000       0.48480000
N        1.47890000       3.35390000       0.77310000
C        1.25530000       1.94320000       0.62770000
H       -2.13300000       1.40730000      -0.17470000
H       -2.42990000       3.74640000      -0.16470000
H       -1.76380000       3.54900000       1.45480000
H        1.12340000       5.33050000       0.56310000
H        1.53500000       1.45880000       1.57480000
H        2.01000000       1.58260000      -0.08540000
