20
Properties=species:S:1:pos:R:3 gdb_106420=T pbc="F F F"
C       -0.03650000       1.36740000       0.02240000
O        0.06240000      -0.04540000      -0.01150000
C        0.68560000      -0.54250000      -1.13190000
C        0.29070000      -0.47220000      -2.63720000
N        1.53560000      -1.37790000      -2.64320000
C        2.14300000      -0.36680000      -1.65370000
C        0.91750000      -2.01790000      -1.41050000
C        1.44350000      -3.16780000      -0.63970000
C        0.09000000      -3.24490000      -1.35830000
H        0.95420000       1.84260000       0.01050000
H       -0.62050000       1.75230000      -0.82520000
H       -0.54500000       1.63030000       0.95200000
H       -0.62000000      -0.98490000      -2.95230000
H        0.44550000       0.46620000      -3.17550000
H        2.41850000       0.57850000      -2.12790000
H        2.95530000      -0.78130000      -1.05390000
H        2.26310000      -3.73680000      -1.06630000
H        1.44180000      -3.11120000       0.44400000
H       -0.80960000      -3.23940000      -0.75140000
H        0.03710000      -3.86350000      -2.24830000
