21
Properties=species:S:1:pos:R:3 gdb_117345=T pbc="F F F"
C        0.29500000       1.47720000       0.01330000
C       -0.01940000      -0.00560000       0.03810000
O        0.69450000      -0.58360000       1.15410000
C        0.54310000      -1.90240000       1.33530000
O       -0.12820000      -2.59950000       0.60290000
C        1.29070000      -2.39630000       2.55480000
C        1.65590000      -3.88950000       2.45450000
C        2.42700000      -4.35940000       3.68140000
O        0.49540000      -4.69080000       2.34840000
H        1.36790000       1.64710000      -0.11250000
H       -0.22950000       1.95220000      -0.82090000
H       -0.02400000       1.96030000       0.94100000
H       -1.08880000      -0.19860000       0.16720000
H        0.29660000      -0.51010000      -0.87990000
H        2.17510000      -1.77180000       2.71000000
H        0.63460000      -2.25090000       3.42330000
H        2.29450000      -4.02130000       1.56350000
H        3.36650000      -3.80980000       3.79280000
H        1.82670000      -4.21720000       4.58600000
H        2.65370000      -5.42470000       3.58920000
H       -0.00010000      -4.33900000       1.59460000
