20
Properties=species:S:1:pos:R:3 gdb_17635=T pbc="F F F"
C        0.34680000       1.82460000      -0.06650000
C        0.06300000       0.31940000       0.00930000
C        0.61500000      -0.41500000      -1.20900000
C       -0.01850000      -1.68420000      -1.72370000
C       -0.13860000      -0.40430000      -2.51410000
C        0.70800000      -0.29600000       1.26040000
C       -0.07140000      -1.38570000       1.97080000
O        1.80110000       0.05990000       1.63850000
H        1.42390000       2.00460000      -0.03170000
H       -0.05260000       2.24320000      -0.99440000
H       -0.10640000       2.35710000       0.77560000
H       -1.02010000       0.14470000       0.04820000
H        1.69810000      -0.35960000      -1.28230000
H        0.62760000      -2.46910000      -2.10070000
H       -0.91210000      -2.04850000      -1.22670000
H       -1.10710000       0.08510000      -2.53560000
H        0.42650000      -0.30890000      -3.43460000
H       -1.00020000      -0.97020000       2.38010000
H       -0.36060000      -2.17070000       1.26390000
H        0.52550000      -1.81100000       2.77870000
