20
Properties=species:S:1:pos:R:3 gdb_58886=T pbc="F F F"
C        0.21130000       1.53240000      -0.18020000
C       -0.08890000       0.05040000       0.06190000
O        0.39530000      -0.75190000      -1.01440000
C        0.56710000      -0.46790000       1.32430000
N        2.01350000      -0.83210000       1.29580000
C        0.99050000      -1.88030000       1.52880000
C        0.79050000      -2.23480000       2.99840000
C        0.28070000      -0.93670000       3.59310000
C        0.13700000       0.01970000       2.67370000
H        1.29030000       1.69650000      -0.25460000
H       -0.26010000       1.87530000      -1.10900000
H       -0.17830000       2.15290000       0.63210000
H       -1.17890000      -0.08110000       0.16420000
H        0.11160000      -0.34740000      -1.83950000
H        2.27310000      -0.90230000       0.31120000
H        0.84280000      -2.62490000       0.75590000
H        0.06780000      -3.05180000       3.12470000
H        1.72680000      -2.55990000       3.46820000
H        0.09530000      -0.81520000       4.65470000
H       -0.20440000       1.03020000       2.86520000
