20
Properties=species:S:1:pos:R:3 gdb_17493=T pbc="F F F"
C       -0.03460000       1.53010000       0.08500000
C        0.00960000       0.02960000       0.01530000
C       -0.90580000      -0.84710000       0.83160000
C        0.58700000      -0.96790000       1.00690000
C        1.29800000      -1.72210000      -0.14700000
C        0.36700000      -2.19680000      -1.23410000
C        0.73180000      -0.73610000      -1.15640000
C        1.42290000      -0.01490000      -2.27910000
H        0.94390000       1.98040000      -0.11590000
H       -0.74530000       1.94870000      -0.63880000
H       -0.34910000       1.85880000       1.08100000
H       -1.40040000      -0.31870000       1.64240000
H       -1.51650000      -1.63810000       0.41110000
H        1.06870000      -0.76590000       1.95590000
H        2.31460000      -2.08750000      -0.06600000
H        0.86890000      -2.72520000      -2.04050000
H       -0.62650000      -2.58190000      -1.03370000
H        0.70400000       0.41350000      -2.98890000
H        2.05440000       0.80340000      -1.91560000
H        2.06600000      -0.70230000      -2.83840000
