18
Properties=species:S:1:pos:R:3 gdb_8269=T pbc="F F F"
C        0.46600000       1.65390000      -0.58270000
C        0.26560000       0.24120000      -0.29230000
C        0.10530000      -0.92990000      -0.05730000
C       -0.10920000      -2.32970000       0.24570000
C       -0.05390000      -2.80050000       1.73680000
C       -1.21950000      -3.77220000       1.41720000
O       -2.20070000      -4.03890000       2.38350000
C       -1.56160000      -2.90730000       0.17630000
H        1.24630000       1.79970000      -1.33810000
H       -0.45130000       2.11770000      -0.96270000
H        0.76780000       2.20720000       0.31380000
H        0.56000000      -2.95240000      -0.35820000
H        0.88550000      -3.20920000       2.11420000
H       -0.38880000      -1.99680000       2.40070000
H       -0.83590000      -4.75130000       1.11360000
H       -2.56470000      -3.19690000       2.67730000
H       -2.29060000      -2.13150000       0.43220000
H       -1.87550000      -3.40480000      -0.74350000
