19
Properties=species:S:1:pos:R:3 gdb_76969=T pbc="F F F"
C        0.01980000       1.40100000       0.30600000
C       -0.11960000      -0.06090000      -0.04780000
C        0.59560000      -0.71480000      -1.21740000
C        1.51230000       0.03400000      -2.13090000
C        2.11410000      -0.66990000      -3.29420000
N        1.06730000       0.34340000      -3.49890000
N        0.96540000      -0.99490000       0.15610000
C        2.16790000      -0.78760000       0.79420000
O        2.30110000      -0.21720000       1.85160000
H        0.97550000       1.82030000      -0.01310000
H       -0.78370000       1.97430000      -0.16690000
H       -0.04930000       1.53170000       1.38890000
H       -1.09430000      -0.48320000       0.19650000
H        0.07310000      -1.53580000      -1.71340000
H        2.08290000       0.83450000      -1.66740000
H        3.10120000      -0.38770000      -3.64820000
H        1.86340000      -1.71860000      -3.43500000
H        0.17420000      -0.10830000      -3.68550000
H        3.00440000      -1.27920000       0.25990000
