16
Properties=species:S:1:pos:R:3 gdb_8059=T pbc="F F F"
O        0.44790000       1.08030000       0.38140000
C        0.22140000      -0.25800000       0.13700000
C        0.62360000      -1.11280000      -1.10640000
C       -0.24220000      -2.03440000      -0.19840000
C        0.56580000      -1.49540000       1.02140000
C       -1.22570000      -0.83830000      -0.03900000
C       -2.20230000      -0.76380000       1.09990000
O       -2.34190000      -1.59440000       1.96470000
H        1.39310000       1.21320000       0.51360000
H        0.19680000      -0.81520000      -2.06760000
H        1.68090000      -1.37860000      -1.19140000
H       -0.51780000      -3.06760000      -0.38790000
H        1.62210000      -1.77740000       1.05260000
H        0.09240000      -1.57030000       1.99830000
H       -1.71430000      -0.49060000      -0.95760000
H       -2.83270000       0.15510000       1.08980000
