12
Properties=species:S:1:pos:R:3 gdb_5463=T pbc="F F F"
N        0.04410000       1.41410000       0.17060000
C        0.03050000       0.04190000       0.05030000
C       -1.07290000      -0.78680000       0.01420000
O       -0.67040000      -2.10590000      -0.03100000
C        0.67330000      -2.09380000      -0.03160000
C        1.16790000      -0.82720000       0.01680000
C       -2.44000000      -0.47910000       0.01150000
N       -3.55640000      -0.15840000       0.00500000
H        0.84300000       1.87780000      -0.23430000
H       -0.82520000       1.87710000      -0.05370000
H        1.14960000      -3.06040000      -0.06770000
H        2.20690000      -0.53810000       0.03610000
