16
Properties=species:S:1:pos:R:3 gdb_75923=T pbc="F F F"
N        0.14590000       1.33390000      -0.52490000
C       -0.06110000      -0.01690000      -0.03420000
C        0.47660000      -0.30490000       1.37800000
O        1.47050000       0.13560000       1.87690000
O       -0.36740000      -1.14200000       2.03890000
C       -1.52000000      -1.45950000       1.23780000
C       -1.50920000      -0.46130000       0.08680000
C       -2.65830000       0.36160000      -0.30340000
O       -2.25920000      -0.78860000      -1.06680000
H       -0.09880000       2.00240000       0.20120000
H        1.13670000       1.47440000      -0.69940000
H        0.44550000      -0.71180000      -0.71820000
H       -1.42650000      -2.48370000       0.85870000
H       -2.40570000      -1.39600000       1.87350000
H       -3.60060000       0.26080000       0.23330000
H       -2.48050000       1.31610000      -0.79270000
