19
Properties=species:S:1:pos:R:3 gdb_104370=T pbc="F F F"
C       -0.12250000       1.48820000       0.14020000
C       -0.09060000      -0.02510000      -0.08590000
C        0.84330000      -0.47810000      -1.23340000
O        2.16460000      -0.03080000      -1.01800000
C        0.77450000      -1.99280000      -1.46770000
C       -0.38940000      -2.12070000      -2.46170000
O       -0.40550000      -0.88240000      -3.21030000
C        0.33690000       0.05150000      -2.58250000
O        0.57750000       1.13340000      -3.04540000
H        0.87850000       1.86060000       0.37450000
H       -0.48490000       2.02360000      -0.74160000
H       -0.77700000       1.73410000       0.98120000
H        0.26910000      -0.52740000       0.82000000
H       -1.10480000      -0.40150000      -0.27300000
H        2.24440000       0.81200000      -1.48650000
H        1.71350000      -2.31740000      -1.92370000
H        0.60940000      -2.57070000      -0.55610000
H       -0.26900000      -2.93310000      -3.18050000
H       -1.35800000      -2.23340000      -1.96380000
