19
Properties=species:S:1:pos:R:3 gdb_61842=T pbc="F F F"
O       -0.51810000       1.24740000       0.12540000
C       -0.07730000      -0.11690000       0.04710000
C        0.77370000      -0.32290000      -1.21480000
C        0.04500000       0.14540000      -2.45730000
O        0.48020000       0.94640000      -3.24220000
C        0.63530000      -0.57890000       1.30860000
C        1.49280000       0.37510000       2.12990000
C        0.17510000      -0.12540000       2.67180000
O       -0.92190000       0.71260000       2.84400000
H        0.24440000       1.82120000      -0.01400000
H       -1.00980000      -0.68670000      -0.05650000
H        1.72740000       0.21050000      -1.13660000
H        0.99270000      -1.39370000      -1.32490000
H       -0.95850000      -0.31720000      -2.60240000
H        0.99070000      -1.60390000       1.23460000
H        2.42470000       0.01030000       2.54810000
H        1.52090000       1.41870000       1.83080000
H        0.21480000      -0.85510000       3.47470000
H       -1.04070000       1.20440000       2.01840000
