17
Properties=species:S:1:pos:R:3 gdb_121785=T pbc="F F F"
O       -0.05260000       1.45260000      -0.01930000
C        0.04590000       0.04080000       0.01990000
C       -1.37520000      -0.51250000       0.03280000
C       -1.39910000      -2.04120000       0.03830000
C       -2.84560000      -2.61390000       0.05570000
C       -2.83550000      -4.07560000      -0.09640000
N       -2.79380000      -5.21970000      -0.24390000
C       -3.57050000      -2.22820000       1.27560000
N       -4.12310000      -1.89610000       2.23320000
H        0.83550000       1.82060000       0.00370000
H        0.59050000      -0.34960000      -0.85590000
H        0.58480000      -0.30210000       0.91800000
H       -1.89530000      -0.11830000       0.91260000
H       -1.90380000      -0.12850000      -0.84840000
H       -0.90810000      -2.43920000      -0.85570000
H       -0.86120000      -2.43910000       0.90480000
H       -3.39660000      -2.19750000      -0.79820000
