15
Properties=species:S:1:pos:R:3 gdb_1766=T pbc="F F F"
C       -0.06450000       1.52770000      -0.09540000
C        0.00400000       0.02800000       0.05290000
N        1.30140000      -0.62340000      -0.15100000
C        0.69330000      -0.66340000       1.20010000
C        1.43090000       0.06550000       2.30640000
C        0.09760000      -1.91930000       1.60720000
N       -0.36430000      -2.92900000       1.93310000
H        0.85330000       2.00970000       0.24550000
H       -0.20460000       1.78920000      -1.14940000
H       -0.90940000       1.93560000       0.46850000
H       -0.87040000      -0.49900000      -0.32560000
H        1.19540000      -1.51950000      -0.61970000
H        1.89320000       0.97350000       1.91860000
H        0.74890000       0.33050000       3.11970000
H        2.22180000      -0.56940000       2.71580000
