20
Properties=species:S:1:pos:R:3 gdb_63873=T pbc="F F F"
C       -0.06530000       1.58450000      -0.11000000
C       -0.02930000       0.06060000      -0.03440000
C       -1.39320000      -0.55560000      -0.34610000
C        1.12640000      -0.64290000      -0.85200000
C        1.68530000      -1.21070000       0.45190000
N        2.01620000      -0.09200000       1.31800000
C        0.59790000      -0.51950000       1.25920000
C       -0.01520000      -1.09680000       2.46030000
O        0.62690000      -1.45970000       3.42520000
H        0.90390000       2.00640000       0.16470000
H       -0.31310000       1.91490000      -1.12500000
H       -0.82390000       1.99370000       0.56730000
H       -1.68890000      -0.31600000      -1.37300000
H       -1.37720000      -1.64680000      -0.24860000
H       -2.17150000      -0.16800000       0.32060000
H        0.74800000      -1.40720000      -1.53400000
H        1.81180000       0.02000000      -1.38580000
H        2.09190000      -2.19910000       0.63190000
H        2.37010000      -0.46970000       2.19990000
H       -1.11860000      -1.20690000       2.43310000
