16
Properties=species:S:1:pos:R:3 gdb_25904=T pbc="F F F"
N       -0.02870000       1.31710000      -0.01240000
C        0.01650000      -0.06050000       0.07160000
O        1.08660000      -0.64370000       0.21700000
C       -1.26820000      -0.76240000       0.02450000
C       -2.55010000      -0.23370000       0.11400000
N       -3.42870000      -1.26220000       0.07180000
C       -2.75560000      -2.46880000      -0.04550000
C       -1.40550000      -2.19170000      -0.07400000
N       -0.34420000      -3.07390000      -0.24580000
H        0.87170000       1.75470000      -0.13820000
H       -0.79500000       1.74570000      -0.50570000
H       -2.88530000       0.78180000       0.25170000
H       -4.42630000      -1.17030000       0.14300000
H       -3.28970000      -3.40220000      -0.10610000
H       -0.49300000      -3.98930000       0.15320000
H        0.52860000      -2.65220000       0.05230000
