14
Properties=species:S:1:pos:R:3 gdb_15019=T pbc="F F F"
C        0.04850000      -1.18680000      -0.20890000
C        0.05110000       0.00730000      -0.08660000
C        0.01060000       1.46790000       0.05320000
C        1.35630000       2.04620000       0.09760000
C        2.45270000       2.53130000       0.15520000
C       -0.87400000       2.08100000      -1.04530000
C       -0.67300000       3.43560000      -1.56640000
O       -0.29680000       2.27700000      -2.32210000
H        0.06140000      -2.24310000      -0.31810000
H       -0.49020000       1.69970000       1.00650000
H        3.42920000       2.94700000       0.19850000
H       -1.87670000       1.65270000      -1.05630000
H       -1.52580000       3.99020000      -1.95410000
H        0.15800000       4.03180000      -1.19730000
