16
Properties=species:S:1:pos:R:3 gdb_32314=T pbc="F F F"
O        0.01510000       1.43770000       0.00640000
C        0.00530000       0.02140000       0.00240000
C       -1.41490000      -0.46450000       0.01250000
C       -2.48880000       0.35720000       0.02340000
C       -3.81910000      -0.18760000       0.03260000
C       -3.96100000      -1.52250000       0.03000000
O       -2.90970000      -2.37280000       0.01920000
C       -1.59640000      -1.90880000       0.00990000
N       -0.62430000      -2.73010000      -0.00020000
H        0.93130000       1.72650000       0.00000000
H        0.51460000      -0.39310000      -0.88170000
H        0.52880000      -0.39830000       0.87560000
H       -2.33450000       1.42910000       0.02510000
H       -4.69350000       0.44920000       0.04130000
H       -4.90230000      -2.05760000       0.03620000
H       -0.95990000      -3.69310000      -0.00020000
