19
Properties=species:S:1:pos:R:3 gdb_98478=T pbc="F F F"
C        0.39400000       1.32650000      -0.30350000
O        0.21420000      -0.08260000      -0.10960000
C        0.83020000      -0.59070000       0.97280000
O        1.48700000       0.06920000       1.74360000
C        0.62180000      -2.07190000       1.10630000
C        1.82370000      -2.84670000       1.59980000
C        0.66510000      -2.62200000       2.52440000
O       -0.15610000      -2.71980000       0.15780000
C       -1.55580000      -2.53490000       0.30530000
H        1.45290000       1.56410000      -0.43150000
H       -0.16530000       1.57410000      -1.20550000
H        0.01070000       1.88620000       0.55330000
H        1.94100000      -3.83060000       1.16150000
H        2.73350000      -2.28520000       1.77210000
H        0.78210000      -1.90470000       3.32730000
H        0.00840000      -3.46080000       2.72350000
H       -1.90430000      -2.86970000       1.29200000
H       -1.84150000      -1.48680000       0.16120000
H       -2.03200000      -3.14460000      -0.46580000
