16
Properties=species:S:1:pos:R:3 gdb_31435=T pbc="F F F"
O        0.04260000       1.42960000       0.00670000
C        0.01020000       0.02080000       0.00260000
C       -1.41180000      -0.46820000       0.01240000
C       -2.47230000       0.36770000       0.02260000
C       -3.83380000      -0.12650000       0.03190000
N       -4.86330000       0.61750000       0.04160000
O       -3.98280000      -1.52340000       0.02960000
C       -2.90870000      -2.33810000       0.01940000
C       -1.64250000      -1.89510000       0.01070000
H        0.96070000       1.71300000      -0.00100000
H        0.51510000      -0.39680000      -0.88620000
H        0.52920000      -0.40220000       0.88070000
H       -2.35070000       1.44130000       0.02430000
H       -5.71420000       0.05450000       0.04680000
H       -3.20150000      -3.38130000       0.01910000
H       -0.82330000      -2.60310000       0.00270000
