13
Properties=species:S:1:pos:R:3 gdb_133371=T pbc="F F F"
N       -0.03350000       1.39030000       0.14850000
C       -0.00540000       0.00460000       0.03740000
N       -1.14290000      -0.63200000       0.01690000
N       -1.06990000      -1.98730000       0.00590000
C        0.04090000      -2.80980000      -0.02900000
O       -0.02830000      -4.02580000      -0.05650000
C        1.27580000      -2.01680000      -0.02440000
F        2.40130000      -2.70330000      -0.05130000
C        1.26430000      -0.66950000       0.01610000
H        0.67870000       1.87430000      -0.37970000
H       -0.95530000       1.77280000      -0.01500000
H       -1.96590000      -2.45500000       0.00250000
H        2.19240000      -0.10930000       0.04270000
