18
Properties=species:S:1:pos:R:3 gdb_46795=T pbc="F F F"
O        0.06130000       0.11310000       0.83640000
C       -0.01970000       1.11170000       0.17300000
C       -1.38550000       1.77530000      -0.10300000
N       -1.71820000       2.33790000      -1.40480000
C       -0.73270000       3.19210000      -2.05400000
C        0.54750000       2.44290000      -2.54940000
C        1.20310000       2.77650000      -1.18780000
C        0.17640000       3.92720000      -1.03220000
O        1.12970000       1.71030000      -0.23590000
H       -2.12210000       1.00790000       0.13880000
H       -1.49400000       2.55120000       0.66620000
H       -1.99350000       1.59610000      -2.03890000
H       -1.24230000       3.81430000      -2.79500000
H        0.44930000       1.38300000      -2.80000000
H        1.04750000       2.96460000      -3.37050000
H        2.25910000       3.04700000      -1.18510000
H        0.58320000       4.84330000      -1.46710000
H       -0.20920000       4.15880000      -0.03890000
