17
Properties=species:S:1:pos:R:3 gdb_103524=T pbc="F F F"
C       -0.07120000       1.55390000       0.00310000
C       -0.03120000       0.02180000       0.01360000
C       -1.45760000      -0.57650000      -0.02010000
O       -2.13640000      -0.20790000      -1.19770000
N        0.69610000      -0.50060000      -1.16340000
C        1.67530000      -1.18080000      -0.70760000
N        1.78410000      -1.23280000       0.67540000
C        0.73780000      -0.50200000       1.23660000
O        0.51880000      -0.34270000       2.41160000
H        0.92860000       1.97120000      -0.14240000
H       -0.71940000       1.89300000      -0.80680000
H       -0.46610000       1.91340000       0.95750000
H       -1.38910000      -1.67080000       0.08340000
H       -2.03170000      -0.19290000       0.82830000
H       -1.54890000      -0.43950000      -1.92860000
H        2.39930000      -1.70560000      -1.32310000
H        2.49060000      -1.71430000       1.20850000
