20
Properties=species:S:1:pos:R:3 gdb_73928=T pbc="F F F"
C       -0.12380000       1.49760000       0.07290000
C        0.00660000       0.00800000       0.01400000
C       -0.06020000      -0.79710000      -1.05930000
C        0.18070000      -2.25190000      -0.72510000
C        0.10330000      -2.26080000       0.82010000
C        0.31850000      -0.79270000       1.25870000
N       -0.28290000      -0.35980000      -2.37250000
C       -0.31780000      -1.10030000      -3.52400000
O       -0.15940000      -2.29600000      -3.62410000
H       -0.32780000       1.96030000      -0.89870000
H       -0.93420000       1.79800000       0.74970000
H        0.79320000       1.95930000       0.46280000
H       -0.54440000      -2.91720000      -1.19640000
H        1.16210000      -2.56900000      -1.09910000
H       -0.89280000      -2.59090000       1.13070000
H        0.82420000      -2.94740000       1.27040000
H        1.35300000      -0.60790000       1.58690000
H       -0.31930000      -0.51330000       2.10690000
H       -0.42550000       0.63160000      -2.49530000
H       -0.51640000      -0.44570000      -4.39640000
