16
Properties=species:S:1:pos:R:3 gdb_68525=T pbc="F F F"
C       -0.07960000       1.47880000      -0.06940000
C        0.05590000      -0.01110000       0.01870000
O        0.69760000      -0.60200000      -1.08620000
C        0.49600000      -1.96090000      -0.64830000
C        1.03840000      -1.91480000       0.78320000
C        0.76110000      -0.68240000       1.20500000
C       -1.02800000      -1.91730000      -0.47760000
N       -1.84390000      -2.85440000      -0.68490000
O       -1.29040000      -0.64930000      -0.04560000
H        0.91060000       1.94040000      -0.05040000
H       -0.58630000       1.75090000      -0.99740000
H       -0.66110000       1.85220000       0.77670000
H        0.88280000      -2.69190000      -1.35080000
H        1.43790000      -2.75870000       1.32600000
H        0.88680000      -0.23990000       2.18250000
H       -2.79950000      -2.55540000      -0.48080000
