19
Properties=species:S:1:pos:R:3 gdb_28583=T pbc="F F F"
N        0.07070000       1.20390000       0.72030000
C       -0.08530000      -0.07130000       0.13530000
C       -1.13390000      -0.68710000      -0.51020000
C       -0.72270000      -2.02140000      -0.80380000
C        0.56260000      -2.18720000      -0.34080000
N        0.93600000      -0.98330000       0.23140000
C        1.49550000      -3.33030000      -0.40180000
C        1.76040000      -4.18500000       0.82770000
C        0.96640000      -4.73970000      -0.32460000
H        0.64860000       1.81880000       0.15320000
H       -0.83060000       1.65230000       0.83040000
H       -2.07910000      -0.22760000      -0.75730000
H       -1.29650000      -2.77170000      -1.32660000
H        1.77670000      -0.82900000       0.76150000
H        2.35790000      -3.19560000      -1.05330000
H        2.76830000      -4.55330000       0.98580000
H        1.22150000      -3.93510000       1.73470000
H       -0.10080000      -4.86400000      -0.18350000
H        1.42680000      -5.49070000      -0.95640000
