19
Properties=species:S:1:pos:R:3 gdb_106535=T pbc="F F F"
C        0.01850000       1.52600000      -0.04800000
C       -0.04460000      -0.00650000      -0.01400000
C       -1.45020000      -0.53780000       0.02020000
C       -2.64080000      -0.27780000      -0.98940000
C       -3.28700000      -1.24900000       0.06070000
C       -1.93250000      -2.04770000       0.02290000
O       -1.62160000      -2.88550000      -1.05030000
C       -2.55110000      -0.36250000       1.07330000
O       -2.73960000       0.19880000       2.11000000
H        1.05530000       1.87440000      -0.04910000
H       -0.46780000       1.92330000      -0.94520000
H       -0.48360000       1.95490000       0.82440000
H        0.47860000      -0.42880000      -0.88140000
H        0.48520000      -0.37800000       0.87220000
H       -3.04140000       0.73530000      -1.04550000
H       -2.50360000      -0.68040000      -1.99580000
H       -4.30210000      -1.63730000       0.07940000
H       -1.68860000      -2.61870000       0.92080000
H       -1.88130000      -2.47260000      -1.87990000
