22
Properties=species:S:1:pos:R:3 gdb_99273=T pbc="F F F"
C       -0.08560000       1.43980000       0.08910000
N       -0.09110000       0.00940000      -0.14460000
C        0.85990000      -0.61910000      -0.89650000
O        1.76240000      -0.01890000      -1.45670000
C        0.72530000      -2.13760000      -0.96100000
C        1.17800000      -2.70300000      -2.30960000
C        1.41390000      -4.21780000      -2.27460000
C        1.83140000      -4.76580000      -3.63930000
O        2.35950000      -4.57250000      -1.26490000
H        0.05990000       1.67520000       1.14990000
H        0.74350000       1.85610000      -0.48390000
H       -1.02120000       1.90150000      -0.24570000
H       -0.79860000      -0.55120000       0.29960000
H        1.36850000      -2.55990000      -0.17930000
H       -0.29950000      -2.45090000      -0.72730000
H        0.44080000      -2.46770000      -3.08710000
H        2.10440000      -2.19240000      -2.59930000
H        0.48970000      -4.71950000      -1.95850000
H        2.74940000      -4.27620000      -3.98770000
H        2.01850000      -5.84110000      -3.57650000
H        1.05600000      -4.58940000      -4.39180000
H        3.20550000      -4.18100000      -1.51210000
