18
Properties=species:S:1:pos:R:3 gdb_50263=T pbc="F F F"
O       -0.34710000       0.61210000       1.20980000
C        0.51190000       0.69370000       0.37070000
C        1.18290000       1.99930000      -0.05480000
C        1.39740000       2.98260000       1.14170000
N        2.79130000       3.01450000       1.60460000
C        3.65580000       3.36580000       0.41450000
C        3.57140000       1.89000000      -0.01670000
C        3.35040000       1.61440000       1.48720000
O        2.37860000       1.68390000      -0.76820000
H        0.88700000      -0.19120000      -0.19080000
H        0.49490000       2.45260000      -0.78200000
H        1.11460000       4.00000000       0.85840000
H        0.73880000       2.66670000       1.95670000
H        3.23920000       4.11090000      -0.26820000
H        4.64840000       3.67580000       0.75380000
H        4.37680000       1.40780000      -0.57570000
H        4.28550000       1.53730000       2.04820000
H        2.68170000       0.80490000       1.79200000
