16
Properties=species:S:1:pos:R:3 gdb_123723=T pbc="F F F"
C       -0.02050000       1.48810000      -0.12820000
C        1.36140000       2.05120000       0.10670000
C        2.45850000       1.33460000       0.35620000
C        2.52090000      -0.17180000       0.44950000
C        1.16670000      -0.75590000       0.22070000
N        0.84330000      -2.04990000       0.22800000
N       -0.46130000      -2.02660000      -0.02400000
N       -1.01980000      -0.83310000      -0.19550000
C        0.01180000      -0.00150000      -0.04190000
H       -0.72600000       1.90650000       0.60340000
H       -0.39770000       1.81450000      -1.10770000
H        1.44030000       3.13440000       0.06340000
H        3.40120000       1.85360000       0.50920000
H        3.24370000      -0.56380000      -0.27980000
H        2.91470000      -0.47140000       1.43100000
H       -1.00150000      -2.87400000      -0.08230000
