20
Properties=species:S:1:pos:R:3 gdb_88229=T pbc="F F F"
C       -0.38580000       1.41470000       0.05850000
C        0.00700000      -0.04030000       0.04150000
N        1.40290000      -0.34750000      -0.28170000
C        0.89740000      -0.64760000       1.08560000
C        1.43720000       0.10360000       2.18420000
C        1.86810000       0.71120000       3.13370000
C        2.39970000       1.42920000       4.25480000
C        1.97010000       2.86350000       4.52300000
C        1.50870000       1.77100000       5.44020000
H        0.40830000       2.01880000       0.50210000
H       -0.56650000       1.77550000      -0.95960000
H       -1.30250000       1.56150000       0.63960000
H       -0.75200000      -0.71580000      -0.35290000
H        1.46660000      -1.21470000      -0.80920000
H        0.70350000      -1.69550000       1.30910000
H        3.43290000       1.19780000       4.49830000
H        2.73150000       3.55060000       4.87440000
H        1.24840000       3.29580000       3.84040000
H        0.47280000       1.45910000       5.38190000
H        1.94970000       1.70040000       6.42810000
