17
Properties=species:S:1:pos:R:3 gdb_18023=T pbc="F F F"
O        0.09070000       1.17180000      -0.46560000
C        0.05150000      -0.13810000       0.07540000
C       -1.39220000      -0.61070000       0.19600000
N       -2.14180000      -0.46660000      -1.10020000
C       -2.59680000      -1.88170000      -1.03210000
C       -1.63620000      -2.83670000      -1.75770000
O       -0.78710000      -2.92920000      -0.58220000
C       -1.69670000      -2.13220000       0.20060000
H       -0.38950000       1.10900000      -1.30170000
H        0.61230000      -0.85120000      -0.54340000
H        0.52840000      -0.09400000       1.06010000
H       -1.89600000      -0.09990000       1.02590000
H       -2.90940000       0.19120000      -1.03410000
H       -3.67090000      -2.05710000      -1.09430000
H       -2.05720000      -3.81740000      -2.01290000
H       -1.11600000      -2.41020000      -2.62140000
H       -1.97350000      -2.61280000       1.14120000
