23
Properties=species:S:1:pos:R:3 gdb_70926=T pbc="F F F"
C        0.09110000       1.51410000       0.01410000
C        0.02800000       0.00920000      -0.00710000
C        0.60450000      -0.94520000      -1.12750000
C       -0.04360000      -1.87600000      -0.06510000
C        0.64500000      -0.98000000       1.01750000
C       -0.56230000      -3.27120000       0.18290000
C       -1.71550000      -2.98590000       1.21310000
C       -2.11880000      -1.45930000       1.10740000
C       -1.24580000      -0.91640000      -0.03520000
H        1.12840000       1.86750000      -0.00560000
H       -0.42620000       1.94350000      -0.85110000
H       -0.38110000       1.91350000       0.91860000
H        0.11500000      -0.90060000      -2.10560000
H        1.69410000      -0.96800000      -1.22450000
H        1.73800000      -1.02440000       1.05460000
H        0.22490000      -0.98230000       2.02500000
H       -0.96690000      -3.70020000      -0.74110000
H        0.17480000      -3.97530000       0.58030000
H       -2.57280000      -3.63920000       1.02860000
H       -1.37000000      -3.20900000       2.22680000
H       -3.18160000      -1.34550000       0.87920000
H       -1.95330000      -0.95600000       2.06370000
H       -1.80220000      -0.85980000      -0.97840000
