18
Properties=species:S:1:pos:R:3 gdb_42846=T pbc="F F F"
O       -0.15350000      -0.03300000       0.20780000
C       -0.09270000       1.15390000       0.07990000
C       -1.09420000       2.33250000       0.10030000
C        0.03140000       3.01670000       0.96650000
C        1.00060000       2.24660000       0.01910000
N        0.73170000       2.93360000      -1.26570000
C        0.68630000       2.04670000      -2.47850000
C       -0.86030000       2.15960000      -2.55260000
C       -0.79470000       2.99550000      -1.25070000
H       -2.12520000       2.22540000       0.42950000
H        0.09230000       4.10500000       0.90600000
H        0.05950000       2.66890000       1.99990000
H        2.05210000       2.07130000       0.23740000
H        1.22950000       2.48500000      -3.31980000
H        1.06900000       1.03540000      -2.30530000
H       -1.23380000       2.70990000      -3.41770000
H       -1.40630000       1.21720000      -2.47250000
H       -1.19430000       4.01250000      -1.31490000
