22
Properties=species:S:1:pos:R:3 gdb_117171=T pbc="F F F"
C       -0.27000000       1.15870000       1.04750000
C       -0.08850000      -0.05310000       0.15240000
O       -1.33220000      -0.77000000       0.13900000
C       -1.38380000      -1.89200000      -0.61070000
N       -0.37420000      -2.28010000      -1.27560000
C       -2.76310000      -2.52510000      -0.49620000
C       -3.00120000      -3.64650000      -1.50890000
C       -2.99720000      -3.00580000       0.94420000
O       -4.34860000      -3.43140000       1.04150000
H        0.65830000       1.73650000       1.08450000
H       -1.06530000       1.80780000       0.66980000
H       -0.52880000       0.85760000       2.06690000
H        0.17230000       0.22870000      -0.87310000
H        0.70450000      -0.71690000       0.51300000
H       -0.58470000      -3.13610000      -1.78280000
H       -3.49060000      -1.72280000      -0.67180000
H       -4.01100000      -4.04120000      -1.38450000
H       -2.89000000      -3.28820000      -2.53640000
H       -2.30110000      -4.47650000      -1.35670000
H       -2.30140000      -3.83100000       1.16930000
H       -2.78390000      -2.18350000       1.63870000
H       -4.50020000      -3.74820000       1.93640000
