19
Properties=species:S:1:pos:R:3 gdb_78434=T pbc="F F F"
O        0.16930000       1.32980000       0.06750000
C        0.05430000      -0.06250000      -0.04030000
C       -1.32500000      -0.65850000      -0.01360000
C       -0.48800000      -0.63460000      -1.31680000
C       -0.44560000      -2.18370000      -1.31130000
C        0.82480000      -2.88280000      -0.91370000
C        0.79200000      -3.29160000       0.35730000
C       -0.50540000      -2.95980000       1.06970000
C       -1.31540000      -2.19680000      -0.00560000
H       -0.57160000       1.73610000      -0.39470000
H        0.88880000      -0.52960000       0.47290000
H       -2.17290000      -0.04090000       0.26630000
H       -0.60160000      -0.01250000      -2.19850000
H       -0.92530000      -2.61110000      -2.19660000
H        1.66630000      -3.01640000      -1.58520000
H        1.60300000      -3.81070000       0.85890000
H       -1.01700000      -3.86890000       1.41040000
H       -0.33180000      -2.35110000       1.96690000
H       -2.31610000      -2.60670000      -0.15130000
