14
Properties=species:S:1:pos:R:3 gdb_23538=T pbc="F F F"
O       -0.04740000       1.28510000       0.02190000
N        0.06470000      -0.10390000      -0.09500000
C       -1.05620000      -0.67400000       0.02320000
C       -1.43810000      -2.11150000      -0.11220000
O       -2.23840000      -2.42870000       1.04890000
C       -2.87040000      -1.74790000      -0.02020000
C       -2.54050000      -0.23180000       0.12570000
C       -3.01950000       0.45220000       1.30800000
C       -3.43740000       1.01130000       2.28570000
H        0.86630000       1.57540000      -0.07580000
H       -0.92990000      -2.92370000      -0.61390000
H       -3.74280000      -2.19610000      -0.47910000
H       -2.80140000       0.32300000      -0.78420000
H       -3.79500000       1.50370000       3.15580000
