15
Properties=species:S:1:pos:R:3 gdb_17603=T pbc="F F F"
N       -0.08540000       1.12060000       0.61340000
C        0.10010000      -0.08570000       0.00070000
N        1.24620000      -0.50160000      -0.38360000
C       -1.21660000      -0.84740000      -0.13250000
O       -2.28770000      -0.29050000      -0.00520000
N       -1.08850000      -2.18210000      -0.48580000
C       -0.58970000      -3.22400000       0.40410000
C       -2.02470000      -3.18140000      -0.02460000
H        0.66580000       1.78710000       0.53740000
H       -1.03110000       1.46940000       0.62030000
H        1.15870000      -1.42580000      -0.80020000
H        0.09330000      -3.94010000      -0.04340000
H       -0.35560000      -2.93920000       1.42620000
H       -2.76840000      -2.85310000       0.69610000
H       -2.37970000      -3.87740000      -0.77840000
