22
Properties=species:S:1:pos:R:3 gdb_78268=T pbc="F F F"
C       -0.08320000       1.65280000      -0.04600000
C        0.16600000       0.15700000       0.04260000
C        1.41420000      -0.66400000      -0.21480000
C        2.71190000      -0.19490000       0.49330000
C        2.03460000      -0.20870000       1.80950000
N        2.49320000       1.06820000       1.22650000
C        3.71280000       1.55880000       1.86330000
C        0.70810000      -0.70950000       1.15400000
C       -0.05600000      -1.83460000       1.79290000
H       -0.18040000       1.94800000      -1.09770000
H       -1.03120000       1.89740000       0.44850000
H        0.71440000       2.23070000       0.40910000
H       -0.66860000      -0.38740000      -0.40730000
H        1.43610000      -1.44130000      -0.97050000
H        3.71490000      -0.50590000       0.22830000
H        2.39990000      -0.53290000       2.77700000
H        4.39160000       0.75650000       2.20180000
H        4.25780000       2.19050000       1.15480000
H        3.44430000       2.16770000       2.73240000
H       -0.61850000      -1.48980000       2.67010000
H       -0.77290000      -2.27150000       1.09030000
H        0.61430000      -2.63630000       2.12740000
