19
Properties=species:S:1:pos:R:3 gdb_8295=T pbc="F F F"
C       -0.01370000       1.58320000       0.06790000
C        0.10540000       0.05720000       0.03500000
C        0.58850000      -0.47850000      -1.31780000
C        0.69930000      -1.99710000      -1.36570000
C        1.41960000      -2.62630000      -2.59630000
C        2.42870000      -3.20630000      -1.57450000
O        3.39290000      -3.92140000      -1.61500000
N        1.77040000      -2.58380000      -0.54010000
H        0.95130000       2.05940000      -0.13740000
H       -0.72490000       1.94080000      -0.68480000
H       -0.35770000       1.93520000       1.04520000
H        0.79920000      -0.26990000       0.82080000
H       -0.86630000      -0.39340000       0.27730000
H       -0.10490000      -0.15890000      -2.10760000
H        1.56710000      -0.04380000      -1.56020000
H       -0.27790000      -2.45520000      -1.16450000
H        0.85490000      -3.38410000      -3.14190000
H        1.84890000      -1.90920000      -3.29890000
H        1.88290000      -2.67030000       0.45930000
