17
Properties=species:S:1:pos:R:3 gdb_38412=T pbc="F F F"
C       -0.05650000       1.39240000      -0.07950000
C        1.23930000       0.69690000       0.06210000
N       -0.07070000      -0.07120000       0.07900000
C        0.29300000      -0.61800000      -1.27780000
C        1.67040000       0.09010000      -1.26930000
C        2.18830000       0.96760000      -2.43310000
N        3.52980000       0.45320000      -2.75420000
C        3.70690000      -0.52550000      -1.97150000
O        2.74080000      -0.86970000      -1.08440000
H       -0.43660000       1.91960000       0.79010000
H       -0.34660000       1.82810000      -1.03420000
H        1.87650000       0.77970000       0.93620000
H        0.39870000      -1.70290000      -1.23490000
H       -0.40760000      -0.34020000      -2.07320000
H        1.54480000       0.89940000      -3.31770000
H        2.24430000       2.02470000      -2.15180000
H        4.59090000      -1.15230000      -1.93200000
