20
Properties=species:S:1:pos:R:3 gdb_116657=T pbc="F F F"
C        0.27080000       0.99010000       0.40050000
O       -0.62250000       0.30410000      -0.46720000
C       -1.20320000      -0.79870000       0.05400000
N       -2.05480000      -1.43010000      -0.62090000
C       -2.68350000      -2.64410000      -0.13090000
C       -2.43590000      -3.75580000      -1.16120000
C       -2.28620000      -3.14390000       1.28630000
C       -2.68730000      -2.26670000       2.37940000
C       -3.03460000      -1.54370000       3.27550000
H        0.69290000       1.81180000      -0.17950000
H       -0.25140000       1.39850000       1.27430000
H        1.08490000       0.33790000       0.74070000
H       -0.86100000      -1.04170000       1.06690000
H       -3.76280000      -2.44190000      -0.10850000
H       -3.02110000      -4.65030000      -0.92510000
H       -2.71270000      -3.40490000      -2.15750000
H       -1.37570000      -4.03110000      -1.18320000
H       -2.75230000      -4.12580000       1.43240000
H       -1.20240000      -3.31950000       1.32090000
H       -3.34400000      -0.90940000       4.06870000
