16
Properties=species:S:1:pos:R:3 gdb_98745=T pbc="F F F"
C        0.24180000       1.38130000      -0.16510000
O        0.34250000      -0.04780000      -0.05910000
C        0.31020000      -0.71340000      -1.22350000
O        0.22010000      -0.19440000      -2.30860000
C        0.39110000      -2.19150000      -0.98220000
C       -0.56670000      -3.06260000      -1.77310000
N        0.83620000      -3.05200000      -2.05640000
C        1.39480000      -2.64630000      -3.26970000
O        0.98700000      -2.99790000      -4.34450000
H        1.06630000       1.77830000      -0.76180000
H       -0.70300000       1.66420000      -0.63500000
H        0.29040000       1.75660000       0.85640000
H        0.67560000      -2.48510000       0.02300000
H       -0.96480000      -3.95740000      -1.30390000
H       -1.21590000      -2.55780000      -2.48340000
H        2.31220000      -2.05050000      -3.11950000
