19
Properties=species:S:1:pos:R:3 gdb_92618=T pbc="F F F"
O        0.14270000       1.42070000       0.13900000
C        0.07700000       0.00890000       0.02310000
C       -1.37460000      -0.56380000       0.00520000
C       -1.28000000      -1.82210000      -0.87430000
C       -2.30240000      -2.16070000      -1.96500000
O       -1.54510000      -2.85290000      -2.96430000
C       -0.20120000      -2.34960000      -2.98930000
C       -0.07250000      -1.53560000      -1.73870000
C        0.67000000      -0.53970000      -1.26670000
H       -0.27860000       1.79320000      -0.64420000
H        0.62770000      -0.35300000       0.90150000
H       -1.77090000      -0.74530000       1.00690000
H       -2.02090000       0.18120000      -0.47710000
H       -1.10790000      -2.71840000      -0.26210000
H       -3.10940000      -2.82880000      -1.65330000
H       -2.74720000      -1.23880000      -2.37560000
H        0.48050000      -3.20890000      -3.02790000
H       -0.02900000      -1.74470000      -3.89140000
H        1.57270000      -0.12460000      -1.70100000
