19
Properties=species:S:1:pos:R:3 gdb_24604=T pbc="F F F"
C       -0.23610000       1.41180000       0.09180000
C        1.22190000       1.43790000      -0.44110000
C        1.53640000       0.21690000       0.46710000
C       -0.00250000      -0.05570000       0.53700000
C        2.45440000      -0.85550000      -0.00440000
C        2.99090000      -1.05450000      -1.25290000
N        3.75100000      -2.20120000      -1.15300000
C        3.64550000      -2.64100000       0.13150000
N        2.87700000      -1.85810000       0.85000000
H       -0.36280000       2.07910000       0.94940000
H       -1.04110000       1.60720000      -0.62040000
H        1.25540000       1.16650000      -1.50120000
H        1.81350000       2.34520000      -0.29590000
H        1.87450000       0.56000000       1.45050000
H       -0.41430000      -0.38110000       1.49460000
H       -0.30520000      -0.76640000      -0.23760000
H        2.91770000      -0.50400000      -2.17540000
H        4.29140000      -2.62240000      -1.88940000
H        4.15140000      -3.52950000       0.47970000
