12
Properties=species:S:1:pos:R:3 gdb_20779=T pbc="F F F"
C        0.08050000       1.46210000      -0.00500000
C       -0.01400000      -0.03070000       0.01190000
N       -0.11750000      -0.64330000      -1.12170000
O       -0.20620000      -2.02030000      -1.13440000
N       -0.19090000      -2.78710000      -0.00270000
C       -0.08830000      -2.18930000       1.13380000
C        0.01370000      -0.74340000       1.30080000
O        0.11060000      -0.18270000       2.37860000
H        1.00900000       1.78040000       0.47930000
H        0.04550000       1.83640000      -1.02820000
H       -0.73860000       1.89210000       0.58000000
H       -0.08010000      -2.83630000       2.00670000
