15
Properties=species:S:1:pos:R:3 gdb_82290=T pbc="F F F"
O       -0.16930000       1.44150000      -0.09400000
C       -0.08970000       0.04520000      -0.05190000
C       -1.45670000      -0.59680000      -0.01960000
O       -2.11080000      -0.81080000      -1.26220000
C       -1.59940000      -1.96330000      -0.55790000
C       -0.41920000      -2.61920000      -1.17970000
C        0.67770000      -1.92530000      -1.51200000
C        0.76660000      -0.48500000      -1.21200000
O        1.50590000       0.28310000      -1.79620000
H        0.51140000       1.71200000      -0.73160000
H        0.43330000      -0.28950000       0.86750000
H       -2.10690000      -0.27090000       0.79130000
H       -2.37020000      -2.61620000      -0.15610000
H       -0.49360000      -3.67950000      -1.40310000
H        1.50640000      -2.36860000      -2.05360000
