14
Properties=species:S:1:pos:R:3 gdb_9198=T pbc="F F F"
N        0.22660000       1.11920000      -0.47690000
C       -0.14020000      -0.00640000       0.35790000
C       -1.51390000      -0.60360000       0.07560000
O       -2.29150000      -0.21960000      -0.75560000
O       -1.75950000      -1.65220000       0.91210000
C       -3.01650000      -2.30840000       0.72880000
C       -2.92600000      -3.37070000      -0.27890000
N       -2.86140000      -4.21780000      -1.06090000
H        0.20540000       0.83740000      -1.45280000
H       -0.47820000       1.84630000      -0.39450000
H        0.59800000      -0.81000000       0.25390000
H       -0.11300000       0.28210000       1.41540000
H       -3.27860000      -2.74330000       1.69550000
H       -3.77950000      -1.58750000       0.42410000
