18
Properties=species:S:1:pos:R:3 gdb_22624=T pbc="F F F"
C       -0.07700000       1.52980000       0.02480000
C       -0.04990000       0.02410000      -0.01570000
C        0.68850000      -0.82880000      -1.12080000
C       -0.21640000      -1.95760000      -0.55230000
O        0.28470000      -2.12700000       0.78440000
C        0.41620000      -0.75550000       1.23470000
C       -1.24830000      -0.84820000      -0.38490000
N       -2.46020000      -0.57680000      -0.59930000
O       -3.16850000      -1.70340000      -1.07210000
H        0.92540000       1.93560000       0.19820000
H       -0.45440000       1.93890000      -0.91650000
H       -0.72960000       1.88690000       0.82820000
H        0.42730000      -0.52160000      -2.13480000
H        1.76560000      -0.97560000      -1.00350000
H       -0.39760000      -2.91730000      -1.02540000
H        1.45840000      -0.54770000       1.50500000
H       -0.22570000      -0.58200000       2.10590000
H       -4.05870000      -1.35010000      -1.17520000
