14
Properties=species:S:1:pos:R:3 gdb_42651=T pbc="F F F"
O       -0.00470000       0.08140000       0.02390000
C       -0.09280000       1.26580000       0.04380000
C       -1.20730000       2.29910000      -0.01730000
C       -0.93090000       3.11270000       1.28030000
C        0.41130000       3.47110000       0.63460000
N        0.97720000       2.26330000      -0.06620000
C       -0.08350000       3.17660000      -0.72580000
C        0.03910000       3.74690000      -2.00770000
C        0.10230000       4.24300000      -3.10160000
H       -2.20750000       2.07020000      -0.37150000
H       -1.57160000       3.99360000       1.35730000
H       -0.92890000       2.55990000       2.22450000
H        1.14350000       4.20550000       0.94340000
H        0.17030000       4.67690000      -4.06870000
