15
Properties=species:S:1:pos:R:3 gdb_13052=T pbc="F F F"
O       -0.62290000       0.57040000       0.67290000
C        0.13510000       0.88160000      -0.20970000
C        1.30530000       1.83390000      -0.02070000
C        1.33340000       2.92650000      -1.09130000
C        2.61080000       3.81720000      -1.19550000
N        2.77630000       3.30330000      -2.55780000
C        1.69600000       2.45910000      -2.52930000
O        1.25040000       1.66320000      -3.31330000
H        0.02790000       0.48310000      -1.24020000
H        1.24950000       2.25530000       0.98750000
H        2.22720000       1.23780000      -0.08970000
H        0.41120000       3.51410000      -1.07470000
H        2.43840000       4.89600000      -1.13810000
H        3.41710000       3.53600000      -0.51020000
H        3.49290000       3.44780000      -3.25350000
