21
Properties=species:S:1:pos:R:3 gdb_38795=T pbc="F F F"
C       -0.04010000       1.54720000       0.08960000
C        1.51140000       1.47920000      -0.02490000
C        2.08670000       1.37130000       1.39620000
C        1.85320000      -0.06400000       1.89370000
C        2.88090000      -0.99180000       1.18100000
C        1.82250000      -1.19730000       0.09260000
C        1.36110000       0.05450000      -0.72100000
C       -0.03760000       0.01970000      -0.02770000
C        0.68960000      -0.79590000       1.08930000
H       -0.45380000       2.01940000       0.98740000
H       -0.50200000       1.99840000      -0.79440000
H        1.99700000       2.25720000      -0.61730000
H        3.16050000       1.59000000       1.42370000
H        1.59880000       2.11420000       2.03780000
H        1.80230000      -0.12870000       2.98240000
H        3.84950000      -0.55340000       0.91690000
H        3.05030000      -1.92310000       1.73100000
H        1.79460000      -2.12170000      -0.48980000
H        1.48540000       0.06560000      -1.80490000
H       -0.89410000      -0.50750000      -0.45530000
H        0.12700000      -1.52630000       1.67280000
