14
Properties=species:S:1:pos:R:3 gdb_15029=T pbc="F F F"
O       -0.18320000       0.19860000       0.37800000
C       -0.00830000       1.33200000       0.02350000
C        1.39010000       1.96630000      -0.09840000
C        1.46180000       2.81150000      -1.28090000
C        1.47690000       3.48800000      -2.27400000
C        1.67560000       2.70520000       1.21490000
C        2.42440000       3.96340000       1.28350000
O        0.99970000       3.93810000       1.42570000
H       -0.84490000       2.01990000      -0.21500000
H        2.10240000       1.13510000      -0.16920000
H        1.50080000       4.08650000      -3.15140000
H        1.68710000       2.03760000       2.07710000
H        2.97900000       4.20380000       2.18880000
H        2.78750000       4.41550000       0.36380000
