18
Properties=species:S:1:pos:R:3 gdb_89320=T pbc="F F F"
C        0.02980000       1.52800000       0.00940000
C       -0.06650000       0.03500000       0.06760000
C       -1.35010000      -0.80310000      -0.02100000
C       -0.72030000      -1.81440000       0.99860000
O       -0.43770000      -3.11980000       0.54540000
C        0.54500000      -0.94530000       1.06340000
N        1.09110000      -0.76920000      -0.28860000
C        1.36230000      -0.74550000       2.21270000
C        2.01390000      -0.57860000       3.21030000
H        1.02610000       1.85440000       0.31700000
H       -0.14590000       1.88710000      -1.01150000
H       -0.71320000       1.99550000       0.66360000
H       -2.23510000      -0.30190000       0.37990000
H       -1.58020000      -1.20640000      -1.01290000
H       -1.25830000      -1.82330000       1.95420000
H       -1.27000000      -3.59160000       0.43870000
H        0.86710000      -1.57510000      -0.87110000
H        2.60420000      -0.43390000       4.08080000
