16
Properties=species:S:1:pos:R:3 gdb_4551=T pbc="F F F"
C        0.01010000       1.47140000       0.01270000
N        0.04130000       0.02470000      -0.01050000
C        0.10830000      -0.75030000      -1.16450000
C        0.11480000      -2.04110000      -0.71070000
O        0.17100000      -3.17010000      -1.45300000
N        0.05570000      -2.09070000       0.65050000
C        0.01190000      -0.82810000       1.05090000
C       -0.06000000      -0.39710000       2.47870000
H        0.91110000       1.88810000      -0.44960000
H       -0.86490000       1.85110000      -0.52550000
H       -0.04130000       1.81930000       1.04460000
H        0.14280000      -0.31760000      -2.14860000
H        0.15820000      -3.90060000      -0.82280000
H        0.79980000       0.21540000       2.77430000
H       -0.96710000       0.17890000       2.69630000
H       -0.06900000      -1.29270000       3.10100000
