25
Properties=species:S:1:pos:R:3 gdb_101439=T pbc="F F F"
C       -1.12120000       1.31000000      -0.44930000
C       -0.74460000      -0.17430000      -0.48540000
C        0.47460000      -0.49900000      -1.37150000
C        1.77620000       0.10910000      -0.82710000
C        0.62430000      -2.01070000      -1.50340000
O       -0.58800000      -2.67280000      -1.94380000
C        0.15260000      -3.51010000      -2.85160000
C        1.43340000      -2.66820000      -2.66450000
C        1.80520000      -1.80960000      -3.86850000
H       -0.32970000       1.92770000      -0.01340000
H       -1.32230000       1.69090000      -1.45720000
H       -2.02430000       1.46720000       0.14880000
H       -0.54710000      -0.52950000       0.53580000
H       -1.59500000      -0.75600000      -0.85470000
H        0.28010000      -0.08490000      -2.36970000
H        2.63930000      -0.16000000      -1.44410000
H        1.72580000       1.20050000      -0.79470000
H        1.97410000      -0.24540000       0.19160000
H        0.93350000      -2.41930000      -0.52650000
H        0.22250000      -4.54490000      -2.48910000
H       -0.28620000      -3.51410000      -3.85710000
H        2.30420000      -3.23520000      -2.32550000
H        0.94200000      -1.25340000      -4.24720000
H        2.59600000      -1.09020000      -3.63500000
H        2.16950000      -2.44550000      -4.68280000
