14
Properties=species:S:1:pos:R:3 gdb_4192=T pbc="F F F"
O       -0.09360000       1.33720000       0.04410000
N        0.04260000      -0.06110000       0.01140000
C       -1.10260000      -0.63210000      -0.03430000
C       -2.46230000      -0.09060000      -0.03050000
C       -3.32060000      -1.12330000       0.01730000
N       -2.70090000      -2.40540000       0.11170000
C       -2.00620000      -2.77160000      -1.14530000
C       -1.25510000      -2.11890000      -0.02840000
H        0.82270000       1.62830000       0.09430000
H       -2.70430000       0.95980000      -0.07330000
H       -4.40270000      -1.09190000      -0.00980000
H       -1.87730000      -3.83730000      -1.30760000
H       -2.23390000      -2.17980000      -2.02690000
H       -0.57450000      -2.71830000       0.56530000
