22
Properties=species:S:1:pos:R:3 gdb_118000=T pbc="F F F"
C        0.06770000       1.61350000       0.04510000
C        0.00630000       0.08330000       0.02340000
C        0.63130000      -0.51110000      -1.24470000
C        0.65430000      -2.04990000      -1.28390000
C       -0.74650000      -2.66230000      -1.41950000
C        1.57550000      -2.52260000      -2.43760000
O        2.88890000      -1.99430000      -2.37050000
C        1.63060000      -3.99850000      -2.51330000
N        1.70340000      -5.15180000      -2.53790000
H        1.10260000       1.96910000      -0.00690000
H       -0.47140000       2.04310000      -0.80650000
H       -0.37870000       2.01670000       0.95910000
H        0.52740000      -0.31650000       0.90380000
H       -1.03820000      -0.23620000       0.11730000
H        0.08820000      -0.14280000      -2.12740000
H        1.65850000      -0.14450000      -1.34280000
H        1.10680000      -2.41690000      -0.35010000
H       -0.71060000      -3.75480000      -1.43540000
H       -1.38420000      -2.36380000      -0.58420000
H       -1.23040000      -2.32560000      -2.34410000
H        1.16740000      -2.15470000      -3.38680000
H        3.31520000      -2.34900000      -1.58140000
