18
Properties=species:S:1:pos:R:3 gdb_35725=T pbc="F F F"
N       -0.24810000      -0.84620000      -0.96100000
C       -0.10820000       0.17780000      -0.44410000
C        0.03650000       1.49720000       0.17260000
N        0.16850000       1.50650000       1.64310000
C        1.24990000       2.51730000       1.57840000
C        1.42490000       2.21700000       0.06750000
N        2.51500000       1.31400000      -0.20600000
C        2.93250000       1.19810000      -1.60110000
C        3.77560000       1.92990000      -0.61680000
H       -0.76270000       2.14170000      -0.22050000
H       -0.66910000       1.77230000       2.14750000
H        0.93030000       3.55060000       1.76680000
H        2.11350000       2.28230000       2.20670000
H        1.41570000       3.09630000      -0.59450000
H        3.19760000       0.19750000      -1.92580000
H        2.40420000       1.79440000      -2.34330000
H        3.81070000       3.01520000      -0.70070000
H        4.67310000       1.47490000      -0.20930000
