19
Properties=species:S:1:pos:R:3 gdb_78092=T pbc="F F F"
C       -0.10200000       1.50670000       0.00300000
N        0.11390000       0.07310000       0.11060000
C        1.36920000      -0.57720000      -0.15510000
C        2.58270000       0.25540000       0.35600000
C        1.93930000       0.23470000       1.78730000
C        0.75400000      -0.58620000       1.22940000
C        0.02100000      -1.65050000       1.99030000
C        3.85120000      -0.44500000       0.26630000
N        4.85170000      -1.01980000       0.18700000
H        0.70610000       2.13830000       0.40030000
H       -0.24460000       1.76180000      -1.05130000
H       -1.02030000       1.76240000       0.53960000
H        1.43200000      -1.34400000      -0.91980000
H        2.69050000       1.24180000      -0.10550000
H        2.54480000      -0.33660000       2.49210000
H        1.70980000       1.20960000       2.22590000
H       -0.59340000      -1.21000000       2.78460000
H       -0.64140000      -2.20520000       1.32140000
H        0.71950000      -2.35160000       2.45860000
