19
Properties=species:S:1:pos:R:3 gdb_109621=T pbc="F F F"
C       -0.55410000       0.63430000      -2.08680000
N       -0.11020000      -0.33300000      -1.09000000
C        1.29300000      -0.46030000      -0.73520000
C        2.39520000       0.36850000      -1.36340000
O        2.63460000      -0.02090000      -2.70810000
C        0.29660000       0.10280000       0.25410000
C        0.30430000       1.55810000       0.70020000
C       -0.16000000      -0.79300000       1.30590000
N       -0.50150000      -1.48850000       2.16400000
H       -0.06630000       1.61650000      -2.05000000
H       -0.36520000       0.20600000      -3.07410000
H       -1.63140000       0.78170000      -1.97040000
H        1.59150000      -1.49860000      -0.57610000
H        2.14300000       1.42890000      -1.40940000
H        3.30250000       0.27690000      -0.74670000
H        2.90240000      -0.94610000      -2.70910000
H        0.66650000       2.23200000      -0.07540000
H       -0.70660000       1.87050000       0.97840000
H        0.94360000       1.67540000       1.57980000
