20
Properties=species:S:1:pos:R:3 gdb_106106=T pbc="F F F"
C        0.18650000       1.68700000      -0.14090000
C        0.07460000       0.17110000      -0.04550000
C        0.75480000      -0.74940000      -1.06270000
N        2.16360000      -1.07520000      -0.61910000
C        2.33020000      -0.36180000       0.69280000
C        0.86120000      -0.64480000       1.02910000
C        0.98360000      -1.80120000      -0.04580000
C        0.88190000      -3.28720000      -0.03130000
O        1.87170000      -3.88450000       0.79450000
H        1.22070000       2.02410000      -0.24820000
H       -0.36890000       2.05740000      -1.00960000
H       -0.23570000       2.16680000       0.74920000
H       -0.98070000      -0.12000000       0.01090000
H        0.56430000      -0.85390000      -2.12380000
H        3.02280000      -0.94200000       1.30720000
H        2.67670000       0.67510000       0.62940000
H        0.49350000      -0.71940000       2.05080000
H       -0.08430000      -3.60680000       0.37390000
H        0.94530000      -3.65360000      -1.06800000
H        2.72400000      -3.61090000       0.43650000
