20
Properties=species:S:1:pos:R:3 gdb_83298=T pbc="F F F"
C       -0.03910000       1.38930000      -0.12710000
N       -0.00840000      -0.02570000       0.15690000
C       -1.17240000      -0.91530000       0.04440000
C       -1.22610000      -1.46810000      -1.40580000
C        0.04160000      -2.38120000      -1.44750000
C        0.63170000      -2.23100000      -0.00850000
C       -0.65580000      -2.13310000       0.83230000
C        1.14050000      -0.78480000       0.05840000
O        2.27590000      -0.36780000      -0.03140000
H        0.98940000       1.75350000      -0.08800000
H       -0.44910000       1.60150000      -1.12460000
H       -0.64100000       1.92690000       0.61380000
H       -2.08320000      -0.43450000       0.40360000
H       -2.14510000      -2.03610000      -1.57720000
H       -1.19400000      -0.66270000      -2.14400000
H       -0.22440000      -3.42510000      -1.63510000
H        0.75990000      -2.08060000      -2.21350000
H        1.38420000      -2.96770000       0.26430000
H       -0.47910000      -1.90860000       1.88650000
H       -1.30290000      -3.00990000       0.74040000
