14
Properties=species:S:1:pos:R:3 gdb_48236=T pbc="F F F"
N        0.16420000       1.27590000      -0.34670000
C        0.04460000       0.05370000      -0.05860000
N       -1.23180000      -0.57470000       0.03380000
C       -1.26760000      -1.97760000      -0.09380000
N       -0.24950000      -2.61440000      -0.50010000
C       -2.38540000       0.15960000       0.34280000
O       -2.39130000       1.25580000       0.84480000
C       -3.76270000      -0.40930000      -0.05320000
O       -3.97760000      -1.35680000      -0.75850000
H        1.15110000       1.53260000      -0.35240000
H        0.84190000      -0.66740000       0.11940000
H       -2.21560000      -2.41470000       0.20580000
H       -0.43220000      -3.61570000      -0.48670000
H       -4.55700000       0.24180000       0.36160000
