17
Properties=species:S:1:pos:R:3 gdb_46631=T pbc="F F F"
O        0.04050000      -0.05560000       0.03400000
C        0.02400000       1.15400000       0.04530000
N       -1.08110000       1.98450000      -0.14410000
C       -0.76360000       3.39730000       0.06640000
C        0.74200000       3.34760000       0.04630000
C        1.79660000       4.13850000      -0.14390000
C        3.06060000       3.29370000      -0.04300000
C        2.52480000       1.82430000      -0.02100000
N        1.09760000       2.00980000       0.23880000
H       -1.98880000       1.61020000       0.07880000
H       -1.17210000       4.03570000      -0.72360000
H       -1.13880000       3.77040000       1.03110000
H        1.78480000       5.20640000      -0.30140000
H        3.74950000       3.45680000      -0.87810000
H        3.62210000       3.51890000       0.87320000
H        2.66900000       1.32170000      -0.98470000
H        2.99110000       1.21070000       0.75220000
