18
Properties=species:S:1:pos:R:3 gdb_19290=T pbc="F F F"
C        0.00790000       1.52930000      -0.08960000
C       -0.11630000       0.00780000       0.04860000
C        0.69920000      -0.55130000       1.20810000
C        0.79180000      -2.07260000       1.37040000
O        1.51230000      -2.58420000       0.23340000
C        2.26220000      -2.06070000       1.34460000
C        2.29260000      -0.54180000       1.11500000
O        2.89400000      -0.11850000      -0.07780000
H        1.04740000       1.81470000      -0.27170000
H       -0.59840000       1.89980000      -0.92190000
H       -0.33070000       2.03880000       0.81990000
H       -1.16870000      -0.27000000       0.19300000
H        0.20010000      -0.47790000      -0.88090000
H        0.39480000      -0.08570000       2.15280000
H        0.11380000      -2.75930000       1.86410000
H        2.99310000      -2.71910000       1.79980000
H        2.75140000       0.02340000       1.92900000
H        2.62040000      -0.75250000      -0.75320000
