16
Properties=species:S:1:pos:R:3 gdb_90319=T pbc="F F F"
O       -0.03750000       1.41720000       0.16090000
C        0.05760000       0.01730000       0.08480000
C        0.12210000      -0.69580000       1.49340000
C       -1.38020000      -0.80350000       1.35360000
C       -2.42470000      -0.13180000       1.85900000
N       -3.24710000       0.32460000       0.81810000
C       -2.64700000       0.19520000      -0.43670000
O       -3.13410000       0.53650000      -1.48660000
C       -1.36990000      -0.60230000      -0.14530000
H        0.80300000       1.75990000       0.48170000
H        0.81560000      -0.30370000      -0.64170000
H        0.65600000      -1.65000000       1.43850000
H        0.51990000      -0.09890000       2.31860000
H       -2.61310000       0.19720000       2.87240000
H       -4.15310000       0.75000000       0.92790000
H       -1.32280000      -1.48090000      -0.79260000
