16
Properties=species:S:1:pos:R:3 gdb_78742=T pbc="F F F"
O        0.09620000       1.35100000       0.05900000
C        0.08050000      -0.05260000      -0.01620000
C       -1.32150000      -0.63970000      -0.13380000
N       -1.29800000      -0.58830000      -1.62940000
C        0.26860000      -0.63320000      -1.43680000
C        0.22470000      -2.16160000      -1.28870000
C       -1.22540000      -1.92710000      -0.90850000
C       -2.35410000      -2.87530000      -0.99190000
O       -2.21510000      -4.06700000      -1.11630000
H       -0.51760000       1.69240000      -0.60320000
H        0.74720000      -0.40900000       0.77420000
H       -2.20860000      -0.36850000       0.42930000
H        0.90540000      -0.12770000      -2.16030000
H        0.29180000      -2.68100000      -2.24670000
H        0.89760000      -2.62790000      -0.56370000
H       -3.35870000      -2.39930000      -0.94030000
