16
Properties=species:S:1:pos:R:3 gdb_17395=T pbc="F F F"
C        0.00320000       1.37840000      -0.29590000
C        1.45620000       1.54780000       0.18850000
C        1.28220000       0.12730000       0.74880000
C        2.22490000      -1.09080000       0.46820000
C        2.30750000      -1.31200000       1.98330000
O        2.80100000      -0.09080000       2.55340000
C        1.40240000      -0.18480000       2.25260000
O       -0.03960000       0.01670000       0.19360000
H       -0.74030000       2.01120000       0.20330000
H       -0.15890000       1.42430000      -1.37830000
H        2.19850000       1.63180000      -0.60690000
H        1.63740000       2.32520000       0.93220000
H        1.66350000      -1.86930000      -0.05490000
H        3.17270000      -0.89680000      -0.04020000
H        2.48050000      -2.22440000       2.54120000
H        0.68990000      -0.00090000       3.04890000
