15
Properties=species:S:1:pos:R:3 gdb_52290=T pbc="F F F"
O       -0.20720000       0.35490000       0.73260000
C        0.12360000       1.08630000      -0.16050000
C        1.29720000       2.04560000      -0.06160000
O        1.46980000       2.64960000      -1.33280000
C        2.53250000       3.55240000      -1.38570000
C        2.63040000       4.34410000      -2.69750000
O        2.48260000       5.60300000      -1.96050000
C        2.29390000       4.95250000      -0.76860000
O        2.01820000       5.41620000       0.28990000
H       -0.40670000       1.12530000      -1.13720000
H        1.08900000       2.79430000       0.71580000
H        2.19530000       1.48690000       0.24550000
H        3.47630000       3.09820000      -1.05090000
H        3.58200000       4.31210000      -3.22900000
H        1.78800000       4.18450000      -3.37200000
