21
Properties=species:S:1:pos:R:3 gdb_70795=T pbc="F F F"
C        0.09110000       1.45360000      -0.08280000
C        0.02170000      -0.03910000       0.05770000
C       -1.30870000      -0.80250000      -0.13810000
C       -0.74770000      -2.12860000       0.40820000
C       -0.44730000      -1.75030000       1.88290000
C        0.63840000      -0.85290000       1.27090000
C        0.80810000      -1.83490000       0.08690000
C        1.79930000      -2.94620000      -0.07540000
O        0.87690000      -0.77840000      -0.87860000
H        1.11650000       1.81170000       0.04540000
H       -0.25830000       1.76200000      -1.07400000
H       -0.54260000       1.93620000       0.66830000
H       -2.14760000      -0.42270000       0.45300000
H       -1.58000000      -0.82080000      -1.19590000
H       -1.23780000      -3.06330000       0.13830000
H       -1.25730000      -1.29740000       2.46240000
H       -0.00290000      -2.56950000       2.45560000
H        1.47070000      -0.40610000       1.81450000
H        1.71010000      -3.66740000       0.74300000
H        1.62400000      -3.47900000      -1.01640000
H        2.82200000      -2.55770000      -0.08810000
