16
Properties=species:S:1:pos:R:3 gdb_43494=T pbc="F F F"
O       -0.05540000       0.04430000       0.37060000
C       -0.03400000       1.22080000       0.11190000
N       -1.16050000       2.03320000      -0.01450000
C       -0.91320000       3.37010000      -0.32500000
O       -1.76060000       4.21300000      -0.47640000
C        0.59820000       3.52660000      -0.39780000
C        1.25550000       4.06580000       0.91540000
C        1.83450000       2.65030000       1.20300000
C        1.17490000       2.11690000      -0.11130000
H       -2.09740000       1.67510000       0.10920000
H        0.88300000       4.04100000      -1.31550000
H        2.01220000       4.83050000       0.73410000
H        0.54940000       4.45310000       1.65270000
H        2.92430000       2.60100000       1.18710000
H        1.48470000       2.16680000       2.11730000
H        1.85520000       1.66420000      -0.83250000
