18
Properties=species:S:1:pos:R:3 gdb_86583=T pbc="F F F"
C       -0.23650000       1.50810000      -0.18120000
C        0.01350000       0.01710000      -0.05400000
O        1.16380000      -0.42210000      -0.83130000
C        1.94840000      -0.60800000       0.34610000
C        0.70690000      -0.49260000       1.25370000
N        0.89740000       0.25810000       2.47140000
H        1.09830000       1.23570000       2.28480000
H        0.08240000       0.22000000       3.07390000
H        2.87950000      -1.38910000       2.30460000
C        2.73670000      -1.89770000       0.45560000
O        2.94390000      -2.68350000      -0.42000000
O        3.21040000      -2.08720000       1.71710000
H        0.64190000       2.09560000       0.10700000
H       -0.47520000       1.75700000      -1.21900000
H       -1.08080000       1.81420000       0.44630000
H       -0.87840000      -0.54820000      -0.34760000
H        2.64790000       0.23020000       0.50710000
H        0.32390000      -1.48110000       1.52080000
