25
Properties=species:S:1:pos:R:3 gdb_59109=T pbc="F F F"
C        0.09140000       1.52490000       0.53950000
C        0.09720000       0.02540000       0.20550000
C        0.86280000      -0.76660000       1.27720000
C       -1.32820000      -0.50800000       0.04990000
C       -2.24690000      -0.08760000      -1.15460000
C       -1.55810000       0.39360000      -2.43140000
C       -2.74680000      -1.56280000      -1.22670000
C       -1.56900000      -2.01000000      -0.31870000
O       -0.51070000      -2.68480000      -0.97770000
H        1.11170000       1.91890000       0.59460000
H       -0.45420000       2.11210000      -0.20540000
H       -0.38450000       1.70220000       1.51160000
H        0.62990000      -0.10960000      -0.74550000
H        0.36080000      -0.69370000       2.24980000
H        0.93430000      -1.82200000       1.00500000
H        1.87790000      -0.37390000       1.40120000
H       -1.86980000      -0.30520000       0.98340000
H       -3.02100000       0.63610000      -0.88260000
H       -0.77770000      -0.29650000      -2.77410000
H       -2.28750000       0.47720000      -3.24480000
H       -1.08810000       1.37370000      -2.30430000
H       -3.72290000      -1.71350000      -0.75790000
H       -2.76640000      -2.02540000      -2.21870000
H       -1.82930000      -2.66080000       0.51960000
H       -0.28910000      -2.20470000      -1.78150000
