25
Properties=species:S:1:pos:R:3 gdb_64258=T pbc="F F F"
C       -0.24110000       1.58350000       0.10010000
C       -0.00310000       0.06470000       0.00790000
C       -1.36870000      -0.64200000       0.08760000
C        0.68870000      -0.31150000      -1.33960000
C        2.23300000      -0.40150000      -1.26060000
C        2.69190000      -0.85420000       0.13560000
C        1.61270000      -1.75690000       0.80410000
C        0.88610000      -0.42860000       1.17840000
C        2.29480000       0.23070000       1.16840000
H        0.66560000       2.16170000      -0.09750000
H       -0.99400000       1.89600000      -0.63200000
H       -0.60710000       1.86680000       1.09390000
H       -1.98750000      -0.40140000      -0.78430000
H       -1.25420000      -1.73070000       0.12400000
H       -1.92040000      -0.33320000       0.98290000
H        0.30940000      -1.28970000      -1.65350000
H        0.38370000       0.38780000      -2.12580000
H        2.58790000      -1.09900000      -2.02830000
H        2.69700000       0.56670000      -1.48780000
H        3.72810000      -1.20210000       0.12820000
H        1.08670000      -2.49420000       0.19130000
H        2.00820000      -2.25540000       1.69310000
H        0.32570000      -0.40060000       2.11820000
H        2.80210000       0.08580000       2.12680000
H        2.39140000       1.27880000       0.87370000
