21
Properties=species:S:1:pos:R:3 gdb_119424=T pbc="F F F"
C       -0.04280000       1.52050000      -0.16030000
C       -0.12080000       0.00420000      -0.18380000
O        0.91300000      -0.48210000      -1.03660000
C        0.94420000      -1.85090000      -1.16230000
C       -0.04770000      -2.59820000      -2.05110000
C        1.42880000      -2.70540000      -2.33240000
O        2.03940000      -2.43290000      -3.54120000
C        2.08230000      -3.68720000      -1.36870000
C        1.57860000      -2.82100000      -0.16070000
H        0.92990000       1.84950000       0.21590000
H       -0.17520000       1.92780000      -1.16680000
H       -0.82320000       1.93210000       0.48680000
H        0.00350000      -0.40620000       0.82970000
H       -1.09890000      -0.33520000      -0.55720000
H       -0.64060000      -3.44210000      -1.69800000
H       -0.57570000      -1.93020000      -2.72860000
H        1.47460000      -1.84190000      -4.04900000
H        1.72690000      -4.72120000      -1.42010000
H        3.17070000      -3.67550000      -1.45570000
H        2.40380000      -2.36670000       0.39230000
H        0.90090000      -3.31550000       0.54320000
