20
Properties=species:S:1:pos:R:3 gdb_58343=T pbc="F F F"
C       -0.06440000       1.49980000       0.04140000
C       -0.08670000      -0.03610000       0.01930000
C        0.74700000      -0.65860000       1.14810000
N       -1.47400000      -0.57160000      -0.00830000
C       -2.27990000      -0.27610000       1.10110000
O       -3.40580000      -0.63520000       1.31050000
C       -1.96430000      -1.35420000      -1.08620000
C       -0.96040000      -1.77840000      -2.15280000
O       -3.12060000      -1.68160000      -1.16550000
H        0.96330000       1.85380000      -0.08480000
H       -0.67080000       1.90830000      -0.77180000
H       -0.43960000       1.90860000       0.98370000
H        0.36770000      -0.34010000      -0.92070000
H        0.72800000      -1.75060000       1.08940000
H        1.78730000      -0.32840000       1.06890000
H        0.38140000      -0.36700000       2.13700000
H       -1.72650000       0.35740000       1.81920000
H       -0.09300000      -2.29620000      -1.73270000
H       -1.49200000      -2.45310000      -2.82300000
H       -0.59650000      -0.92540000      -2.73490000
