10
Properties=species:S:1:pos:R:3 gdb_351=T pbc="F F F"
O        0.02730000       1.41020000       0.00970000
C       -0.02550000       0.01160000       0.00240000
C       -1.47880000      -0.44350000       0.01370000
O       -2.42030000       0.31060000       0.02670000
C       -1.63640000      -1.89150000       0.00740000
C       -1.75870000      -3.08890000       0.00230000
H        0.95170000       1.67490000       0.00080000
H        0.44790000      -0.43840000      -0.88790000
H        0.46460000      -0.44810000       0.87860000
H       -1.88290000      -4.14470000      -0.00210000
