20
Properties=species:S:1:pos:R:3 gdb_71251=T pbc="F F F"
C       -0.00160000       1.53240000      -0.00690000
C        0.02130000       0.02880000      -0.03220000
C        0.14320000      -0.80190000      -1.31290000
C       -0.43800000      -1.89790000      -0.39810000
C        0.74290000      -2.17320000       0.55460000
C        0.67460000      -0.76190000       1.17950000
O        1.78550000      -0.22160000       1.82350000
C       -0.75490000      -0.80520000       1.76600000
N       -1.23120000      -0.78680000       0.34290000
H        0.99020000       1.92340000      -0.25830000
H       -0.72210000       1.91930000      -0.73380000
H       -0.26510000       1.92230000       0.98060000
H       -0.57230000      -0.45390000      -2.06150000
H        1.12410000      -0.97060000      -1.76410000
H       -1.02100000      -2.73600000      -0.77780000
H        0.56990000      -2.96790000       1.28710000
H        1.67630000      -2.37590000       0.02260000
H        2.13890000      -0.87420000       2.43720000
H       -1.05710000      -1.66980000       2.36680000
H       -1.06760000       0.11760000       2.25960000
