15
Properties=species:S:1:pos:R:3 gdb_129731=T pbc="F F F"
N       -0.24670000       1.40150000       0.06720000
C       -0.04570000      -0.01460000       0.01950000
C       -1.17050000      -0.78290000       0.02330000
O       -2.40780000      -0.27650000       0.06850000
N       -1.09710000      -2.14180000      -0.01970000
N        0.06750000      -2.82000000      -0.06810000
C        1.15490000      -2.11800000      -0.07320000
C        1.25020000      -0.65030000      -0.03110000
N        2.33910000       0.04740000      -0.03640000
H        0.25380000       1.78060000       0.87010000
H        0.21560000       1.82920000      -0.73420000
H       -2.25770000       0.68970000       0.09410000
H       -1.93520000      -2.70000000      -0.01600000
H        2.07430000      -2.69790000      -0.11280000
H        3.15470000      -0.56670000      -0.07470000
