18
Properties=species:S:1:pos:R:3 gdb_18992=T pbc="F F F"
C       -0.06390000       1.52900000      -0.18570000
C        1.45440000       1.61570000       0.15450000
C        1.48820000       0.08700000       0.42830000
C        1.37990000      -0.34680000       1.90160000
C        0.46160000      -1.59140000       1.83370000
C       -0.52730000      -0.45580000       1.47430000
O        0.22470000       0.41770000       2.37890000
C       -0.04500000      -0.00060000       0.08480000
H       -0.71600000       2.09740000       0.48120000
H       -0.30380000       1.78900000      -1.21940000
H        2.08150000       1.92520000      -0.68490000
H        1.69500000       2.23510000       1.02140000
H        2.20000000      -0.50740000      -0.14740000
H        2.25300000      -0.27180000       2.55080000
H        0.67150000      -2.37080000       1.09550000
H        0.26450000      -2.01170000       2.82030000
H       -1.59610000      -0.49170000       1.68840000
H       -0.37520000      -0.65450000      -0.72440000
