17
Properties=species:S:1:pos:R:3 gdb_66754=T pbc="F F F"
C        0.00890000       1.51660000       0.01800000
C        0.05330000       0.01440000       0.00320000
C       -1.15680000      -0.82780000       0.46520000
C       -0.59920000      -2.26330000       0.34710000
C       -0.44390000      -1.47660000       1.62530000
C        0.87710000      -0.91550000       1.00740000
C        0.82760000      -1.98500000      -0.16420000
C        0.70090000      -0.79990000      -1.13630000
O        1.13570000      -0.52900000      -2.21810000
H        0.98560000       1.94130000      -0.23470000
H       -0.71260000       1.88820000      -0.71810000
H       -0.29000000       1.89690000       1.00060000
H       -2.20810000      -0.60380000       0.33870000
H       -1.23400000      -3.11240000       0.13300000
H       -0.76260000      -1.68530000       2.63710000
H        1.79240000      -0.60030000       1.49990000
H        1.53620000      -2.79830000      -0.29690000
