20
Properties=species:S:1:pos:R:3 gdb_93261=T pbc="F F F"
C        0.40550000       1.40420000       0.13020000
C       -0.02300000      -0.07130000      -0.00790000
C       -1.54530000      -0.17870000      -0.10860000
C        0.72150000      -0.77980000      -1.16050000
O        0.90030000       0.08170000      -2.26540000
C        2.04470000      -1.26530000      -0.51780000
N        1.64120000      -1.48880000       0.85630000
C        0.50390000      -0.82390000       1.23120000
O        0.02010000      -0.81390000       2.34220000
H        1.49170000       1.51190000       0.20920000
H        0.07610000       1.97640000      -0.73980000
H       -0.04340000       1.83000000       1.03150000
H       -1.91350000       0.38440000      -0.97180000
H       -1.86560000      -1.22030000      -0.21570000
H       -2.00870000       0.21950000       0.79770000
H        0.13700000      -1.66510000      -1.45220000
H        1.20820000      -0.43930000      -3.01320000
H        2.42400000      -2.18240000      -0.98180000
H        2.81420000      -0.48680000      -0.61590000
H        2.21480000      -1.94860000       1.54570000
