17
Properties=species:S:1:pos:R:3 gdb_128204=T pbc="F F F"
C       -0.11950000       1.45240000      -0.03800000
N        0.01790000       0.00380000       0.02440000
C       -1.08150000      -0.80450000       0.04100000
C       -1.26290000      -2.12820000       0.35010000
C       -2.64250000      -2.33260000       0.09250000
C       -3.42370000      -3.60630000       0.24270000
O       -2.78120000      -4.71070000      -0.37750000
N       -3.24710000      -1.25030000      -0.34020000
O       -2.23830000      -0.25720000      -0.36150000
H        0.87520000       1.89010000      -0.14220000
H       -0.71100000       1.72650000      -0.91370000
H       -0.60550000       1.87900000       0.85020000
H        0.79030000      -0.34270000       0.57030000
H       -0.53590000      -2.84330000       0.69390000
H       -3.50160000      -3.87250000       1.30230000
H       -4.44150000      -3.44440000      -0.13680000
H       -2.68670000      -4.50160000      -1.31280000
