14
Properties=species:S:1:pos:R:3 gdb_7705=T pbc="F F F"
N       -0.14420000       0.95730000      -0.85710000
C        0.00070000       0.02330000      -0.02410000
C       -1.12820000      -0.49370000       0.83600000
C       -1.09120000      -1.99880000       0.95730000
N       -2.12720000      -2.71500000       0.92510000
O        0.17270000      -2.52520000       1.08170000
C        1.21150000      -1.57710000       1.20680000
O        1.19690000      -0.62840000       0.16110000
H        0.74050000       1.16190000      -1.32590000
H       -1.02830000      -0.05960000       1.84160000
H       -2.08530000      -0.17250000       0.43290000
H       -1.88590000      -3.70190000       1.03470000
H        1.14980000      -1.07130000       2.18050000
H        2.15010000      -2.12390000       1.12440000
