14
Properties=species:S:1:pos:R:3 gdb_53638=T pbc="F F F"
C       -0.12220000       1.42830000       0.01180000
C       -0.07440000      -0.02520000       0.00270000
C       -0.03620000      -1.22740000      -0.00470000
C        0.04680000      -2.67200000      -0.01380000
O       -1.30750000      -3.21920000      -0.00340000
C       -1.36880000      -4.54830000      -0.00940000
O       -0.44460000      -5.31530000      -0.02230000
C       -2.77120000      -4.98530000       0.00210000
N       -3.85430000      -5.38530000       0.01060000
H        0.88850000       1.85030000       0.00750000
H       -0.64840000       1.81270000      -0.86810000
H       -0.63640000       1.80190000       0.90340000
H        0.55970000      -3.05080000      -0.90380000
H        0.57750000      -3.06090000       0.86140000
