20
Properties=species:S:1:pos:R:3 gdb_59743=T pbc="F F F"
C       -0.02790000       1.44920000      -0.20180000
C       -0.01380000      -0.06270000       0.06680000
C        0.75490000      -0.41920000       1.34400000
N       -1.37260000      -0.62530000       0.09250000
C       -2.00610000      -1.15480000      -1.10040000
C       -3.38770000      -1.52830000      -0.54070000
O       -3.54540000      -0.69990000       0.61570000
C       -2.31980000      -0.22650000       1.00670000
O       -2.16540000       0.42920000       2.00420000
H        0.99440000       1.82940000      -0.29030000
H       -0.55490000       1.68130000      -1.13310000
H       -0.52500000       1.97170000       0.61890000
H        0.47820000      -0.56230000      -0.77610000
H        0.77430000      -1.50270000       1.49300000
H        1.78670000      -0.06270000       1.26860000
H        0.28400000       0.04190000       2.21350000
H       -2.07480000      -0.40080000      -1.89950000
H       -1.47000000      -2.02270000      -1.49710000
H       -4.20820000      -1.32710000      -1.23180000
H       -3.42660000      -2.57960000      -0.23320000
