18
Properties=species:S:1:pos:R:3 gdb_16970=T pbc="F F F"
O        0.10630000       1.39360000      -0.11590000
C        0.06500000      -0.01180000      -0.02740000
C        0.68370000      -0.60230000       1.29090000
C       -0.51910000      -1.31060000       1.95460000
C       -1.54410000      -0.23720000       2.34690000
O       -2.03180000       0.26090000       1.07710000
C       -1.38750000      -0.53810000       0.06060000
C       -1.23540000      -1.90790000       0.72050000
H       -0.65340000       1.70080000       0.39950000
H        0.57760000      -0.39870000      -0.91390000
H        1.48390000      -1.31590000       1.07250000
H        1.10530000       0.20020000       1.90170000
H       -0.27130000      -1.99910000       2.76350000
H       -2.38710000      -0.64630000       2.91840000
H       -1.10420000       0.58930000       2.91690000
H       -1.97430000      -0.45600000      -0.85430000
H       -0.60890000      -2.59710000       0.14800000
H       -2.19470000      -2.38190000       0.94380000
