16
Properties=species:S:1:pos:R:3 gdb_1675=T pbc="F F F"
C       -0.18570000       1.63740000      -0.14610000
C       -0.12420000       0.10910000      -0.12760000
C        0.82290000      -0.47650000      -1.18280000
N        2.25400000      -0.16730000      -1.00440000
H        2.48300000      -1.96430000      -1.53300000
H        2.49660000       0.72680000      -1.41410000
H        2.48750000      -0.11650000      -0.01640000
C        0.64800000      -2.00900000      -1.29750000
O       -0.41740000      -2.55870000      -1.20560000
O        1.79030000      -2.66190000      -1.54180000
H        0.79810000       2.08570000       0.03240000
H       -0.54940000       2.00710000      -1.11160000
H       -0.86150000       2.01180000       0.62810000
H        0.19450000      -0.24380000       0.86310000
H       -1.11440000      -0.32130000      -0.29840000
H        0.53460000      -0.08620000      -2.16840000
