18
Properties=species:S:1:pos:R:3 gdb_56747=T pbc="F F F"
N       -0.06690000       1.50940000      -0.04220000
C       -0.00030000       0.04670000      -0.06320000
C       -1.35860000      -0.51450000       0.06460000
N       -2.41260000      -0.98450000       0.11720000
C        0.65810000      -0.53250000      -1.30980000
C        2.08420000      -0.23120000      -1.84740000
C        1.33940000      -1.08060000      -2.90570000
C        0.83820000      -2.00940000      -1.76690000
N        0.14740000      -0.15440000      -2.69470000
H        0.87630000       1.87480000       0.05070000
H       -0.40800000       1.82710000      -0.94700000
H        0.56860000      -0.28230000       0.81560000
H        2.27430000       0.80490000      -2.12890000
H        2.92130000      -0.70010000      -1.32790000
H        1.67720000      -1.35180000      -3.90550000
H        1.57440000      -2.62480000      -1.24000000
H       -0.08520000      -2.56000000      -1.96390000
H       -0.71550000      -0.67660000      -2.88060000
