19
Properties=species:S:1:pos:R:3 gdb_45617=T pbc="F F F"
O       -0.04310000       0.02810000      -0.13380000
C       -0.05280000       1.22850000      -0.06990000
C       -1.27930000       2.11250000       0.19970000
C       -0.71050000       3.50240000       0.16760000
C        0.60850000       3.53770000      -0.07130000
C        1.16930000       2.14500000      -0.24540000
C        1.42410000       4.76320000      -0.15690000
C        2.85640000       4.81150000       0.34770000
C        2.58760000       4.88740000      -1.12610000
H       -2.04830000       1.92450000      -0.56170000
H       -1.73380000       1.83570000       1.16060000
H       -1.32020000       4.38570000       0.32430000
H        1.93610000       1.87950000       0.49380000
H        1.62180000       1.96840000      -1.22970000
H        0.85160000       5.67370000      -0.00560000
H        3.17120000       5.70950000       0.86730000
H        3.28930000       3.89800000       0.73940000
H        2.83820000       4.02530000      -1.73380000
H        2.71550000       5.83800000      -1.63130000
