17
Properties=species:S:1:pos:R:3 gdb_3288=T pbc="F F F"
C        0.21640000       1.56790000       0.04870000
C        0.06210000       0.05590000       0.02070000
C        0.94720000      -0.77890000      -0.96540000
C        1.41650000      -1.68390000       0.20920000
C        2.67330000      -1.17090000       0.92450000
O        1.90100000      -0.22480000       1.70230000
C        0.65490000      -0.75710000       1.19980000
H        1.25030000       1.84120000       0.27750000
H       -0.05440000       2.00810000      -0.91700000
H       -0.42460000       2.01900000       0.81410000
H       -0.99220000      -0.21740000      -0.10520000
H        0.38540000      -1.29670000      -1.74580000
H        1.75700000      -0.21790000      -1.44260000
H        1.26890000      -2.75920000       0.12300000
H        3.16410000      -1.90750000       1.57490000
H        3.43300000      -0.68060000       0.30230000
H       -0.00730000      -1.07850000       2.00950000
