13
Properties=species:S:1:pos:R:3 gdb_132566=T pbc="F F F"
C       -0.03220000       1.51170000      -0.02200000
C       -0.00330000       0.01230000      -0.02040000
N       -0.02660000      -0.65180000      -1.17760000
C        0.00050000      -1.96680000      -1.12210000
F       -0.02310000      -2.61710000      -2.27830000
C        0.05140000      -2.68580000       0.06560000
N        0.07520000      -2.03450000       1.23070000
C        0.04800000      -0.72690000       1.17060000
F        0.07160000      -0.06450000       2.32400000
H        0.85400000       1.91990000       0.47520000
H       -0.06940000       1.87610000      -1.04880000
H       -0.90280000       1.88610000       0.52670000
H        0.07260000      -3.77000000       0.07520000
