17
Properties=species:S:1:pos:R:3 gdb_79861=T pbc="F F F"
O       -0.04320000       1.44840000      -0.07460000
C        0.03370000       0.04440000       0.00790000
C        0.02750000      -0.62170000       1.40810000
C       -1.47030000      -0.22780000       1.55310000
O       -2.17610000      -1.21460000       2.29210000
C       -1.64770000      -2.42960000       1.75990000
C       -0.64400000      -1.88180000       0.73990000
O        0.05620000      -2.77570000      -0.06360000
C       -1.33080000      -0.65960000       0.05920000
H        0.84960000       1.80240000      -0.02200000
H        0.74930000      -0.37290000      -0.70700000
H        0.79690000      -0.61500000       2.18230000
H       -1.77720000       0.77430000       1.83080000
H       -1.17280000      -3.02480000       2.55240000
H       -2.43720000      -3.02970000       1.29080000
H        0.59850000      -3.33630000       0.50190000
H       -2.10750000      -0.69010000      -0.70460000
