23
Properties=species:S:1:pos:R:3 gdb_117850=T pbc="F F F"
C       -0.01490000       1.41180000       0.00110000
O        0.02720000       0.00580000      -0.04500000
C        0.62980000      -0.56810000       1.09370000
C        0.65240000      -2.09570000       0.95820000
C        1.35290000      -2.51360000      -0.34410000
C        1.41570000      -2.66490000       2.18080000
O        1.20530000      -4.05080000       2.36990000
C       -0.78760000      -2.65580000       0.93880000
O       -1.38790000      -2.74450000       2.23320000
H        0.99440000       1.84810000       0.06190000
H       -0.49450000       1.75610000      -0.91820000
H       -0.59640000       1.77550000       0.86360000
H        1.65820000      -0.18500000       1.21760000
H        0.07560000      -0.27020000       2.00460000
H        2.33070000      -2.02800000      -0.43380000
H        1.50850000      -3.59640000      -0.34820000
H        0.76460000      -2.23640000      -1.22280000
H        2.49280000      -2.52980000       2.03180000
H        1.13980000      -2.10300000       3.08610000
H        0.29970000      -4.13320000       2.69390000
H       -1.40330000      -2.05860000       0.25580000
H       -0.76690000      -3.68290000       0.56680000
H       -1.55580000      -1.85330000       2.55420000
