16
Properties=species:S:1:pos:R:3 gdb_125036=T pbc="F F F"
C        0.00920000       1.55680000      -0.02650000
C        0.02480000       0.05640000      -0.02450000
C       -1.11680000      -0.69490000      -0.06610000
N       -2.38150000      -0.16350000      -0.14080000
N       -1.13640000      -2.09170000      -0.08100000
N       -0.04280000      -2.72950000      -0.05520000
N        1.10400000      -2.04360000      -0.01200000
C        1.28580000      -0.64510000       0.01680000
N        2.43270000      -0.07040000       0.07050000
H        1.01980000       1.93230000      -0.18890000
H       -0.64870000       1.94470000      -0.81340000
H       -0.34770000       1.96210000       0.93050000
H       -2.52060000       0.76450000       0.22370000
H       -3.12060000      -0.82020000       0.05880000
H        1.91610000      -2.64400000       0.01100000
H        3.19930000      -0.74290000       0.08520000
