19
Properties=species:S:1:pos:R:3 gdb_92465=T pbc="F F F"
C       -0.09650000       1.54940000      -0.00350000
C        0.03460000       0.03140000       0.00560000
O        0.74490000      -0.38750000      -1.17190000
C        1.86860000      -1.23040000      -0.85960000
C        2.82660000      -0.38800000       0.00020000
O        2.13990000       0.01660000       1.18650000
C        0.80140000      -0.51600000       1.23260000
C        0.84460000      -2.02000000       1.10990000
C        1.42340000      -2.40870000      -0.02660000
H        0.87980000       2.02000000       0.13430000
H       -0.51940000       1.88180000      -0.95510000
H       -0.76030000       1.87950000       0.80290000
H       -0.96620000      -0.42570000      -0.01420000
H        2.32020000      -1.50510000      -1.81370000
H        3.72560000      -0.95830000       0.27010000
H        3.12550000       0.50830000      -0.55760000
H        0.36640000      -0.15930000       2.16710000
H        0.43750000      -2.67670000       1.86990000
H        1.58730000      -3.43430000      -0.33560000
