16
Properties=species:S:1:pos:R:3 gdb_43442=T pbc="F F F"
N       -0.09070000       1.29630000       0.05650000
C       -0.01860000       0.03170000       0.00990000
C       -1.23190000      -0.88880000       0.01410000
C       -0.64840000      -2.29520000       0.01520000
C       -1.23570000      -3.45840000       0.73420000
N       -1.22790000      -3.42400000      -0.73110000
C        0.85490000      -2.15430000      -0.05780000
O        1.68850000      -3.02260000      -0.08450000
N        1.10820000      -0.78660000      -0.05490000
H        0.83240000       1.73350000       0.04040000
H       -1.85810000      -0.67120000       0.88260000
H       -1.83060000      -0.68950000      -0.88070000
H       -0.56550000      -4.19340000       1.16990000
H       -2.16910000      -3.29420000       1.26690000
H       -2.14530000      -3.14990000      -1.07750000
H        2.05410000      -0.43340000      -0.06940000
