18
Properties=species:S:1:pos:R:3 gdb_37458=T pbc="F F F"
C        0.08070000       1.51810000      -0.20810000
C        1.28720000       0.66640000      -0.04750000
C        1.94710000       0.46600000       1.29500000
C        1.27430000       0.79960000       2.62480000
O        0.03940000       1.47380000       2.68710000
C       -0.97880000       0.54120000       2.28820000
C       -0.26820000      -0.45860000       1.37090000
C        1.12150000      -0.56740000       2.04890000
N       -0.04730000       0.05220000      -0.01570000
H       -0.16770000       2.19740000       0.59710000
H       -0.21410000       1.84980000      -1.20080000
H        1.90900000       0.43120000      -0.90930000
H        3.03080000       0.42170000       1.31930000
H        1.91570000       1.01650000       3.47280000
H       -1.39260000       0.03670000       3.17310000
H       -1.77870000       1.09640000       1.79070000
H       -0.79540000      -1.41260000       1.30890000
H        1.48790000      -1.48770000       2.48640000
