22
Properties=species:S:1:pos:R:3 gdb_94189=T pbc="F F F"
C       -0.12130000       1.37680000      -0.29690000
C        0.07720000      -0.10670000       0.01170000
C        1.18020000      -0.74590000      -0.91060000
C        2.21150000      -0.51440000       0.22700000
C        1.02570000      -0.34970000       1.21480000
O        1.05430000       0.68600000       2.16630000
N       -1.24580000      -0.70290000       0.16460000
C       -1.93510000      -1.19910000      -1.01760000
C       -1.44410000      -2.13700000       0.03200000
H        0.83370000       1.90130000      -0.38190000
H       -0.65980000       1.48900000      -1.24390000
H       -0.70410000       1.85040000       0.49560000
H        1.02190000      -1.80830000      -1.11010000
H        1.36600000      -0.24030000      -1.86060000
H        2.92890000      -1.31320000       0.42880000
H        2.75210000       0.42820000       0.11070000
H        0.77550000      -1.31340000       1.68150000
H        1.61160000       0.41090000       2.90040000
H       -2.99050000      -0.95300000      -1.09830000
H       -1.39470000      -1.20200000      -1.96330000
H       -0.60220000      -2.77530000      -0.22860000
H       -2.13510000      -2.57790000       0.74570000
