14
Properties=species:S:1:pos:R:3 gdb_27749=T pbc="F F F"
N        0.04210000       1.28160000       0.14270000
C       -0.03900000      -0.06610000       0.04300000
N       -1.14120000      -0.77700000      -0.00690000
C       -0.68420000      -2.07250000      -0.04190000
N       -1.57690000      -3.09850000      -0.14850000
C        0.70080000      -2.09850000      -0.01270000
O        1.10170000      -0.74990000       0.04230000
C        1.66690000      -3.14340000      -0.02990000
O        2.87910000      -3.02560000      -0.00150000
H        0.92280000       1.70660000      -0.09770000
H       -0.79040000       1.79180000      -0.10220000
H       -2.52040000      -2.86610000       0.12020000
H       -1.27020000      -4.01800000       0.12370000
H        1.18600000      -4.15130000      -0.07570000
