23
Properties=species:S:1:pos:R:3 gdb_110264=T pbc="F F F"
C        0.23570000       1.51720000       0.07230000
O       -0.26570000       0.24370000      -0.26780000
C        0.54350000      -0.43140000      -1.19270000
C        1.76990000      -1.30180000      -0.74870000
C        0.76700000      -2.37960000      -0.20590000
C        0.04600000      -2.27700000       1.13130000
C        0.16390000      -1.88400000      -1.56830000
C        1.62230000      -2.02040000      -2.13410000
C        2.07410000      -1.39810000      -3.44960000
H        1.20270000       1.45530000       0.59330000
H        0.36580000       2.15090000      -0.81930000
H       -0.49350000       1.98800000       0.73580000
H        0.73670000       0.24390000      -2.03460000
H        2.70030000      -0.96690000      -0.28450000
H        1.18090000      -3.39200000      -0.29600000
H       -0.42380000      -1.31030000       1.29120000
H       -0.72680000      -3.05240000       1.19430000
H        0.75290000      -2.46460000       1.94850000
H       -0.76050000      -2.21520000      -2.04600000
H        1.97500000      -3.05570000      -2.09460000
H        1.77720000      -0.35590000      -3.58450000
H        3.16650000      -1.43970000      -3.52680000
H        1.66860000      -1.96640000      -4.29410000
