17
Properties=species:S:1:pos:R:3 gdb_48299=T pbc="F F F"
N        0.02810000       1.32460000       0.02210000
C        0.00140000       0.05810000      -0.05240000
N       -1.17920000      -0.68300000       0.00870000
C       -1.13010000      -2.14280000       0.02730000
C       -1.24850000      -2.71810000       1.45580000
C       -1.14250000      -4.17020000       1.45970000
C       -1.04450000      -5.36740000       1.42220000
C       -2.42130000      -0.06440000       0.06540000
O       -3.45820000      -0.68160000       0.15440000
H        0.98180000       1.66680000      -0.06590000
H        0.87690000      -0.58970000      -0.17520000
H       -1.95480000      -2.51840000      -0.58030000
H       -0.19090000      -2.46370000      -0.42990000
H       -0.46650000      -2.28220000       2.09020000
H       -2.21150000      -2.40570000       1.87330000
H       -0.96750000      -6.42630000       1.40770000
H       -2.34420000       1.02960000       0.01420000
