21
Properties=species:S:1:pos:R:3 gdb_82296=T pbc="F F F"
C        0.69050000       1.35760000      -0.21930000
C        0.05240000      -0.02250000      -0.04390000
O       -1.35990000       0.15070000       0.14520000
C        0.35990000      -0.99440000      -1.22100000
C        1.41830000      -1.96880000      -0.72270000
C        2.67790000      -1.41290000      -0.10900000
C        1.53190000      -1.83020000       0.77900000
C        0.54090000      -0.78420000       1.23530000
O        1.09980000       0.04380000       2.24320000
H        1.77450000       1.31010000      -0.33680000
H        0.28320000       1.83870000      -1.11760000
H        0.47430000       1.99320000       0.64180000
H       -1.68930000       0.70230000      -0.57240000
H       -0.56090000      -1.54110000      -1.45000000
H        0.66120000      -0.46120000      -2.13080000
H        1.47110000      -2.94350000      -1.19510000
H        3.54530000      -2.06420000      -0.10440000
H        2.92560000      -0.36430000      -0.21860000
H        1.67140000      -2.69280000       1.42030000
H       -0.34790000      -1.30010000       1.62600000
H        0.37890000       0.54400000       2.63960000
