19
Properties=species:S:1:pos:R:3 gdb_113768=T pbc="F F F"
C       -0.34990000       0.99450000       0.07290000
O        0.59090000      -0.06990000       0.15330000
C        0.93350000      -0.58080000      -1.09030000
C        1.51180000      -1.95690000      -1.10300000
C        0.12580000      -1.71980000      -1.68320000
C       -1.09640000      -2.22850000      -0.94250000
O       -2.24310000      -1.48360000      -1.26650000
C       -1.32700000      -3.69350000      -1.25540000
O       -2.37280000      -4.09050000      -1.71190000
H        0.05790000       1.83760000      -0.50410000
H       -1.28800000       0.66410000      -0.38780000
H       -0.53800000       1.32600000       1.09640000
H        1.32800000       0.15690000      -1.79050000
H        2.33050000      -2.18210000      -1.77640000
H        1.56990000      -2.45160000      -0.13880000
H        0.02690000      -1.73690000      -2.76500000
H       -0.88440000      -2.15910000       0.13880000
H       -2.89420000      -2.13000000      -1.58380000
H       -0.48030000      -4.37770000      -1.04970000
