18
Properties=species:S:1:pos:R:3 gdb_89187=T pbc="F F F"
C       -0.02820000       1.59850000       0.02380000
C        0.02790000       0.09150000       0.05680000
C       -1.29140000      -0.73570000       0.23560000
C       -0.62600000      -1.54920000       1.38890000
O       -0.48610000      -2.94230000       1.24440000
C        0.71080000      -0.80270000       1.15930000
N        1.54750000      -1.36630000       0.10300000
C        0.94680000      -0.66450000      -0.92930000
O        1.07970000      -0.70050000      -2.12280000
H        0.97140000       2.03770000       0.10350000
H       -0.46440000       1.93600000      -0.92260000
H       -0.64300000       1.99600000       0.83840000
H       -2.14060000      -0.12980000       0.56200000
H       -1.58650000      -1.31980000      -0.63920000
H       -1.06000000      -1.28670000       2.36410000
H       -1.35990000      -3.34410000       1.28000000
H        1.25470000      -0.42100000       2.02430000
H        1.93950000      -2.29790000       0.06170000
