17
Properties=species:S:1:pos:R:3 gdb_67943=T pbc="F F F"
O       -0.09870000       1.30540000      -0.33760000
C        0.02630000      -0.04110000       0.05770000
C        0.47560000      -1.01090000      -1.08850000
C       -0.94080000      -1.61370000      -1.08710000
O       -1.50160000      -2.41260000      -1.77630000
C       -1.36590000      -0.76100000       0.13000000
C       -1.30870000      -1.51130000       1.43220000
C       -0.19150000      -1.25530000       2.11680000
C        0.70610000      -0.25540000       1.43000000
H        0.78500000       1.66400000      -0.47370000
H        0.72860000      -0.50690000      -2.02580000
H        1.26670000      -1.72370000      -0.83690000
H       -2.26360000      -0.15300000      -0.01580000
H       -2.09350000      -2.19260000       1.73910000
H        0.05600000      -1.69220000       3.07830000
H        1.73900000      -0.61390000       1.33060000
H        0.74840000       0.69220000       1.98310000
