22
Properties=species:S:1:pos:R:3 gdb_104090=T pbc="F F F"
C        0.16840000       1.61940000       0.09610000
C        0.07890000       0.09240000      -0.00720000
C        0.64610000      -0.49990000      -1.30200000
C       -0.02830000       0.04750000      -2.56010000
O        2.06390000      -0.11340000      -1.37460000
C        2.74610000      -1.25160000      -1.61500000
N        2.14360000      -2.36490000      -1.65330000
C        0.72560000      -2.07410000      -1.35740000
C        0.28540000      -2.85920000      -0.12000000
H        1.19840000       1.95700000      -0.04700000
H       -0.45990000       2.12120000      -0.64550000
H       -0.16350000       1.95170000       1.08430000
H        0.61560000      -0.35110000       0.83720000
H       -0.96610000      -0.22610000       0.08710000
H        0.08970000       1.13020000      -2.64160000
H        0.40940000      -0.41100000      -3.45180000
H       -1.09820000      -0.18680000      -2.54720000
H        3.81270000      -1.11270000      -1.76010000
H        0.12260000      -2.42330000      -2.20440000
H        0.88300000      -2.60040000       0.75840000
H       -0.77020000      -2.68780000       0.11210000
H        0.42530000      -3.92620000      -0.31150000
