18
Properties=species:S:1:pos:R:3 gdb_40038=T pbc="F F F"
C        0.08010000       1.53690000       0.01530000
O        1.21200000       0.65700000      -0.02150000
C       -0.09400000       0.08060000       0.01560000
C       -0.48470000      -0.77770000       1.23240000
N       -1.43730000      -1.78120000       0.72280000
C       -2.63660000      -1.07180000       0.13120000
C       -2.00960000      -1.16290000      -1.25090000
C       -0.97020000      -2.08670000      -0.66980000
C       -0.54110000      -0.73730000      -1.16850000
H       -0.04210000       2.10010000       0.94040000
H       -0.09800000       2.10610000      -0.89700000
H        0.41060000      -1.28540000       1.60850000
H       -0.92930000      -0.20760000       2.05260000
H       -3.52790000      -1.69690000       0.23600000
H       -2.84080000      -0.07990000       0.55120000
H       -2.52340000      -1.22690000      -2.20260000
H       -0.59190000      -3.05750000      -0.96090000
H       -0.00780000      -0.63850000      -2.10620000
