13
Properties=species:S:1:pos:R:3 gdb_129038=T pbc="F F F"
N       -0.04550000       1.28000000      -0.48810000
C        0.00460000       0.06040000      -0.11320000
C        1.21060000      -0.66280000       0.27000000
C        1.44790000      -1.98800000       0.22470000
N        0.68130000      -3.04940000      -0.24950000
N       -0.56800000      -3.08010000      -0.32820000
N       -1.37390000      -2.04080000       0.07460000
C       -1.33320000      -0.62770000       0.03870000
O       -2.37230000      -0.03150000       0.14370000
H        0.89680000       1.67820000      -0.53330000
H        2.03750000      -0.03290000       0.59030000
H        2.43780000      -2.33580000       0.50570000
H       -2.33870000      -2.35190000       0.05370000
