18
Properties=species:S:1:pos:R:3 gdb_71065=T pbc="F F F"
C       -0.07040000       1.44250000      -0.12190000
C       -0.09270000      -0.04820000      -0.04500000
O        0.68950000      -0.75160000      -1.13820000
C        0.09230000      -1.86180000      -0.53750000
N        0.75030000      -2.69820000       0.15100000
C        0.31150000      -2.30340000       1.53960000
C       -0.35370000      -0.92080000       1.31060000
C       -1.13190000      -1.07230000       0.04380000
C       -2.58940000      -1.15080000      -0.28810000
H        0.93840000       1.82740000       0.05350000
H       -0.40260000       1.77840000      -1.10890000
H       -0.73570000       1.86460000       0.63650000
H       -0.37630000      -3.00270000       2.03970000
H        1.23510000      -2.25720000       2.12450000
H       -0.73680000      -0.33890000       2.14790000
H       -3.14660000      -0.36420000       0.23140000
H       -2.76010000      -1.03270000      -1.36310000
H       -3.01090000      -2.11430000       0.01650000
