17
Properties=species:S:1:pos:R:3 gdb_29395=T pbc="F F F"
C       -0.00810000       1.57630000      -0.12680000
C       -0.00190000       0.07980000      -0.04690000
C       -0.03610000      -0.79410000      -1.10490000
N       -0.01590000      -2.08170000      -0.60150000
C        0.03090000      -2.02480000       0.76960000
N        0.05900000      -3.21060000       1.51160000
C        0.10600000      -3.30240000       2.87630000
O        0.13010000      -2.36890000       3.64580000
C        0.04080000      -0.70300000       1.15000000
H        0.88790000       2.00970000       0.33270000
H       -0.04500000       1.91630000      -1.16600000
H       -0.87210000       2.00570000       0.39380000
H       -0.07290000      -0.61860000      -2.16780000
H       -0.03290000      -2.91850000      -1.15700000
H        0.04400000      -4.08130000       1.00350000
H        0.11970000      -4.36160000       3.19940000
H        0.07480000      -0.35290000       2.16670000
