19
Properties=species:S:1:pos:R:3 gdb_56854=T pbc="F F F"
O        0.69260000       0.31190000      -0.91820000
C       -0.27520000      -0.00210000       0.08320000
C       -1.31070000      -0.90550000      -0.43220000
C       -2.12240000      -1.68230000      -0.86050000
C        0.36970000      -0.58420000       1.33420000
C        1.25140000       0.19380000       2.26940000
C        0.74790000       1.62970000       2.46400000
C       -0.62310000       1.06550000       2.96250000
C       -0.10120000      -0.36190000       2.74640000
H        1.07430000      -0.51940000      -1.22140000
H       -0.73830000       0.96090000       0.31820000
H       -2.85400000      -2.35080000      -1.24250000
H        0.72210000      -1.60240000       1.17650000
H        2.25190000      -0.15060000       2.50320000
H        1.28280000       2.15800000       3.25560000
H        0.74110000       2.26370000       1.57210000
H       -0.79120000       1.28610000       4.01860000
H       -1.52320000       1.35200000       2.40880000
H       -0.30550000      -1.20080000       3.40120000
