20
Properties=species:S:1:pos:R:3 gdb_90729=T pbc="F F F"
O        0.62490000       0.95630000      -0.38470000
C        0.12230000      -0.23210000       0.17370000
C       -0.09730000      -0.26730000       1.71210000
N       -1.57120000      -0.49350000       1.55360000
C       -1.39860000      -0.50530000       0.03860000
C       -1.83880000      -1.98500000      -0.04350000
C       -1.95220000      -1.92460000       1.48550000
C       -1.59490000      -2.95560000       2.51050000
C       -3.03430000      -2.50870000       2.33790000
H        0.11660000       1.69450000      -0.03050000
H        0.75430000      -1.03120000      -0.22450000
H        0.42720000      -1.05390000       2.26360000
H        0.11310000       0.69460000       2.19470000
H       -1.96330000       0.22820000      -0.54490000
H       -2.78370000      -2.15560000      -0.56540000
H       -1.08510000      -2.66890000      -0.44710000
H       -1.31080000      -3.94600000       2.16870000
H       -1.07240000      -2.62520000       3.40280000
H       -3.45410000      -1.86720000       3.10490000
H       -3.73810000      -3.19530000       1.87810000
