17
Properties=species:S:1:pos:R:3 gdb_133710=T pbc="F F F"
C       -0.23570000       1.49230000       0.05240000
N       -0.02270000       0.05420000       0.11820000
C        1.27410000      -0.48460000      -0.26720000
C        0.82680000      -0.51630000       1.15680000
C        1.51240000       0.31880000       2.22060000
C        0.26990000      -1.81980000       1.69990000
F        1.23650000      -2.52980000       2.31400000
F       -0.68880000      -1.58880000       2.61330000
F       -0.25320000      -2.59490000       0.74850000
H        0.66810000       2.09880000       0.21430000
H       -0.62910000       1.73460000      -0.93930000
H       -0.98620000       1.78170000       0.79400000
H        1.25580000      -1.38080000      -0.87990000
H        2.07480000       0.21780000      -0.49810000
H        1.95870000       1.21920000       1.79710000
H        0.80120000       0.61410000       2.99820000
H        2.30750000      -0.26190000       2.69480000
