19
Properties=species:S:1:pos:R:3 gdb_37313=T pbc="F F F"
C        0.02270000       1.49210000       0.13670000
C        1.45430000       2.03510000      -0.03670000
C        2.08810000       1.54990000      -1.34210000
C        3.58230000       1.16700000      -1.29400000
O        3.72440000       0.15830000      -0.28730000
C        3.29530000      -0.24490000      -1.59080000
C        1.78510000       0.04610000      -1.72010000
C        0.79250000      -0.66710000      -0.86170000
C       -0.02740000      -0.00670000      -0.04360000
H       -0.35220000       1.75910000       1.13110000
H       -0.65910000       1.97900000      -0.57660000
H        1.45760000       3.12950000       0.01460000
H        2.05700000       1.66170000       0.79660000
H        1.85850000       2.21470000      -2.17940000
H        4.45460000       1.77320000      -1.51100000
H        3.88810000      -1.00070000      -2.09420000
H        1.50230000      -0.02310000      -2.77830000
H        0.73350000      -1.75010000      -0.94740000
H       -0.76810000      -0.55460000       0.53350000
