13
Properties=species:S:1:pos:R:3 gdb_8999=T pbc="F F F"
N        0.06170000       1.07990000       0.22570000
C       -0.23940000      -0.09780000      -0.09670000
O       -0.30720000      -1.05170000       0.86850000
C       -0.68430000      -2.33980000       0.46210000
C       -2.15160000      -2.45040000       0.05940000
O       -2.86830000      -1.50230000      -0.11440000
C       -2.66930000      -3.89660000      -0.14490000
O       -3.79140000      -4.12670000      -0.49690000
H        0.08820000       1.67430000      -0.59980000
H       -0.44500000      -0.47710000      -1.10510000
H       -0.07010000      -2.71250000      -0.37640000
H       -0.48670000      -3.00700000       1.30900000
H       -1.93280000      -4.70670000       0.05660000
