23
Properties=species:S:1:pos:R:3 gdb_101365=T pbc="F F F"
C        0.03910000       1.53200000       0.14990000
C       -0.10810000       0.00770000       0.12020000
C       -1.54320000      -0.48810000      -0.13900000
C       -2.05740000      -0.14310000      -1.54410000
C       -1.61960000      -1.99480000       0.07140000
O       -1.21790000      -2.43500000       1.40840000
C       -2.40950000      -3.21560000       1.52080000
C       -3.62300000      -2.34460000       1.52860000
C       -2.96520000      -2.71400000       0.21090000
H        1.06600000       1.81920000       0.39690000
H       -0.20470000       1.98970000      -0.81410000
H       -0.61900000       1.97730000       0.90480000
H        0.55870000      -0.41180000      -0.64630000
H        0.22400000      -0.40670000       1.07800000
H       -2.20230000      -0.01250000       0.59960000
H       -3.07620000      -0.51450000      -1.69510000
H       -2.07370000       0.93700000      -1.71120000
H       -1.41910000      -0.58900000      -2.31670000
H       -0.98370000      -2.50580000      -0.66640000
H       -2.32970000      -4.20520000       1.95520000
H       -4.56430000      -2.85510000       1.70850000
H       -3.56070000      -1.33950000       1.93480000
H       -3.48510000      -3.23950000      -0.57810000
