19
Properties=species:S:1:pos:R:3 gdb_105852=T pbc="F F F"
C       -0.26120000       1.36340000      -0.10240000
O        0.17350000       0.02020000       0.08610000
C        0.77340000      -0.51940000      -1.02170000
C       -0.03660000      -1.07450000      -2.19460000
C        0.09890000      -0.67660000      -3.65100000
C        0.86660000      -2.01030000      -1.44750000
C        2.32790000      -1.83270000      -1.88530000
C        2.22620000      -0.36440000      -1.38660000
O        3.04190000       0.48600000      -1.16420000
H        0.58340000       2.02210000      -0.33480000
H       -1.00460000       1.43140000      -0.90880000
H       -0.71990000       1.67910000       0.83660000
H       -1.07070000      -1.18000000      -1.86790000
H        1.13800000      -0.52280000      -3.95120000
H       -0.32580000      -1.44770000      -4.30330000
H       -0.43900000       0.25670000      -3.84630000
H        0.49190000      -2.85490000      -0.88440000
H        3.04100000      -2.38140000      -1.26300000
H        2.56820000      -2.00210000      -2.93750000
