16
Properties=species:S:1:pos:R:3 gdb_68649=T pbc="F F F"
O        0.05980000       1.38850000       0.04830000
C       -0.00400000       0.00700000       0.05850000
C       -1.37830000      -0.72440000       0.00650000
C       -0.68310000      -2.10820000      -0.03420000
N        0.15060000      -1.90080000      -1.25270000
C        0.65840000      -0.63150000      -1.18930000
O        1.44440000      -0.06200000      -1.91620000
C        0.21470000      -1.99810000       1.21070000
C        0.63350000      -0.73280000       1.24820000
H        0.65640000       1.61460000      -0.68340000
H       -1.97060000      -0.56170000       0.90730000
H       -1.95970000      -0.51150000      -0.89410000
H       -1.31080000      -2.99160000      -0.12950000
H        0.66740000      -2.64720000      -1.69160000
H        0.48930000      -2.82140000       1.85630000
H        1.33430000      -0.25680000       1.92050000
