19
Properties=species:S:1:pos:R:3 gdb_50529=T pbc="F F F"
O       -0.26270000       0.06100000      -0.21240000
C       -0.14310000       1.24500000      -0.01750000
C        1.17120000       1.98120000      -0.08100000
C        1.06130000       3.35250000      -0.82460000
C        1.02680000       4.09000000       0.53780000
C        1.53570000       2.79470000       1.22290000
C        0.93810000       2.37130000       2.53790000
C        0.49380000       3.34150000       3.54660000
O       -0.45450000       2.64040000       2.73790000
H       -1.02700000       1.87830000       0.21510000
H        1.93350000       1.28440000      -0.43410000
H        1.96580000       3.56280000      -1.39940000
H        0.19700000       3.48240000      -1.48100000
H        1.64280000       4.98570000       0.64100000
H        0.00620000       4.32050000       0.85340000
H        2.62610000       2.80360000       1.32770000
H        1.24510000       1.38450000       2.88950000
H        0.49980000       3.06930000       4.60060000
H        0.58100000       4.40710000       3.34010000
