18
Properties=species:S:1:pos:R:3 gdb_127120=T pbc="F F F"
C       -0.10560000       1.38630000      -0.03310000
N        0.21640000      -0.03070000      -0.05010000
C        0.01290000      -0.76650000       1.18400000
C        0.09190000      -0.70830000      -1.22960000
N        0.05320000      -2.04110000      -1.32970000
N       -0.00580000      -2.19400000      -2.65800000
C       -0.06230000      -3.48980000      -3.29700000
N       -0.01930000      -1.06330000      -3.33270000
N        0.03800000      -0.09710000      -2.44740000
H        0.43180000       1.86430000       0.79160000
H        0.20500000       1.84140000      -0.97310000
H       -1.18280000       1.57080000       0.10290000
H       -1.05330000      -0.91880000       1.41560000
H        0.48920000      -1.74520000       1.11230000
H        0.46800000      -0.20970000       2.00820000
H       -0.94590000      -4.03480000      -2.95620000
H       -0.11620000      -3.31970000      -4.37160000
H        0.83260000      -4.06630000      -3.05070000
