21
Properties=species:S:1:pos:R:3 gdb_76489=T pbc="F F F"
C        0.21810000       1.61930000      -0.51460000
C        0.15190000       0.12910000      -0.26480000
C        1.42330000      -0.70230000      -0.06290000
O        2.67280000      -0.07560000       0.00780000
C        0.49720000      -0.44440000       1.07730000
C        0.83020000       0.23710000       2.39460000
C        0.09630000      -0.97510000       3.01980000
C       -1.11920000      -0.71590000       3.88370000
O       -0.26280000      -1.47770000       1.69980000
H        1.08970000       2.05950000      -0.02270000
H        0.29330000       1.83990000      -1.58550000
H       -0.67660000       2.12550000      -0.13640000
H       -0.64080000      -0.40300000      -0.78650000
H        1.42320000      -1.70970000      -0.48010000
H        2.93190000       0.18040000      -0.88390000
H        1.89300000       0.33600000       2.61680000
H        0.32910000       1.19470000       2.55850000
H        0.77700000      -1.68050000       3.51440000
H       -1.79150000       0.00080000       3.40190000
H       -1.67240000      -1.64470000       4.05500000
H       -0.81680000      -0.31330000       4.85690000
