19
Properties=species:S:1:pos:R:3 gdb_92725=T pbc="F F F"
C        0.16740000       1.49820000       0.10970000
C       -0.00640000       0.01110000      -0.02640000
C       -0.08870000      -0.62610000      -1.19790000
C       -0.23020000      -2.12200000      -1.30770000
C       -0.99110000      -2.76090000      -0.13000000
O       -0.86000000      -4.17710000      -0.13060000
C       -0.57950000      -2.16560000       1.19780000
O        0.81680000      -1.90730000       1.37440000
C       -0.08430000      -0.78200000       1.23650000
H        1.09790000       1.74160000       0.63810000
H        0.19210000       1.98840000      -0.86670000
H       -0.64840000       1.94510000       0.69250000
H       -0.00830000      -0.06130000      -2.12350000
H       -0.72660000      -2.40170000      -2.24170000
H        0.77020000      -2.57630000      -1.34480000
H       -2.06640000      -2.57810000      -0.25030000
H        0.06640000      -4.37550000       0.04970000
H       -1.08050000      -2.58270000       2.07180000
H       -0.20230000      -0.21550000       2.15940000
