15
Properties=species:S:1:pos:R:3 gdb_132799=T pbc="F F F"
N        0.00880000       1.40120000       0.15040000
C       -0.00940000       0.01310000       0.06340000
C       -1.19420000      -0.73750000       0.01770000
N       -1.21900000      -2.06700000      -0.01550000
C       -0.06760000      -2.73270000       0.00110000
C        1.18740000      -2.10630000       0.04570000
N        2.38600000      -2.80850000       0.11530000
C        1.17440000      -0.71610000       0.06940000
F        2.35140000      -0.05160000       0.08130000
H        0.87270000       1.82620000      -0.15330000
H       -0.80000000       1.85700000      -0.24570000
H       -2.15240000      -0.22210000       0.00860000
H       -0.12110000      -3.81920000      -0.02140000
H        2.35580000      -3.73150000      -0.29230000
H        3.19400000      -2.28450000      -0.18760000
