19
Properties=species:S:1:pos:R:3 gdb_74551=T pbc="F F F"
C        0.02910000       1.47340000       0.01980000
C       -0.02160000      -0.01840000      -0.01700000
C       -0.05790000      -0.80320000      -1.11600000
C       -0.02300000      -2.19630000      -0.71010000
C        0.42990000      -3.39370000      -1.08020000
C        0.45250000      -4.28020000       0.15180000
O        0.25650000      -3.39330000       1.26430000
C       -0.38530000      -2.23800000       0.75620000
C        0.04660000      -0.85030000       1.26400000
H        0.93630000       1.82400000       0.52880000
H        0.01090000       1.90580000      -0.98420000
H       -0.81830000       1.88220000       0.58540000
H       -0.03580000      -0.44130000      -2.13710000
H        0.80300000      -3.70800000      -2.04580000
H       -0.33790000      -5.05160000       0.13440000
H        1.41040000      -4.79830000       0.28670000
H       -1.48060000      -2.32960000       0.87520000
H        1.07880000      -0.88670000       1.63910000
H       -0.58150000      -0.45240000       2.06740000
