16
Properties=species:S:1:pos:R:3 gdb_56802=T pbc="F F F"
O        1.10740000       1.53230000      -0.43290000
C        0.35590000       0.41380000      -0.02540000
C        0.25960000      -0.61650000      -1.07220000
C        0.18290000      -1.44500000      -1.93820000
C        0.95520000      -0.18670000       1.22930000
N        2.10030000       0.13310000       1.66920000
C        2.31780000      -0.67300000       2.88100000
C        1.03600000      -1.54180000       2.99940000
O        0.21740000      -1.10690000       1.88250000
H        1.97600000       1.43400000      -0.01380000
H       -0.66130000       0.75210000       0.21900000
H        0.11370000      -2.17490000      -2.70670000
H        3.22410000      -1.27640000       2.77140000
H        2.46290000      -0.01650000       3.74490000
H        1.22150000      -2.61290000       2.88510000
H        0.47030000      -1.37270000       3.91860000
