15
Properties=species:S:1:pos:R:3 gdb_24092=T pbc="F F F"
C       -0.01270000      -1.16200000      -0.00420000
C        0.02190000       0.03820000       0.00240000
C        0.01540000       1.49360000       0.01090000
O        1.36780000       1.95900000      -0.00260000
C        1.51080000       3.30190000       0.00340000
C        2.71060000       3.97110000      -0.00710000
N        2.34920000       5.30740000       0.00500000
C        0.99650000       5.37130000       0.02160000
N        0.45480000       4.16760000       0.02110000
H       -0.03760000      -2.22350000      -0.01010000
H       -0.52530000       1.88450000      -0.86020000
H       -0.50420000       1.87440000       0.89920000
H        3.73290000       3.63930000      -0.02120000
H        2.98320000       6.08800000       0.00190000
H        0.45620000       6.30530000       0.03340000
