15
Properties=species:S:1:pos:R:3 gdb_42207=T pbc="F F F"
O       -0.10190000       0.00320000       0.29110000
C       -0.06190000       1.21520000       0.19330000
C        1.17490000       1.94860000       0.06310000
C        2.23270000       2.51300000      -0.03550000
C       -1.32690000       2.01090000       0.18330000
N       -1.37720000       3.27460000      -0.02820000
C       -2.80950000       3.62430000       0.03110000
C       -3.58070000       2.27230000       0.00890000
N       -2.51400000       1.35150000       0.41510000
H        3.16160000       3.02220000      -0.12410000
H       -2.99410000       4.17420000       0.96330000
H       -3.07800000       4.28790000      -0.79490000
H       -4.42220000       2.24760000       0.70570000
H       -3.95730000       2.03500000      -0.99600000
H       -2.55460000       0.36620000       0.20130000
