21
Properties=species:S:1:pos:R:3 gdb_101362=T pbc="F F F"
C       -0.01880000       1.43740000      -0.34660000
C        0.08620000      -0.03260000       0.07900000
C        0.82350000      -0.19030000       1.40980000
O        2.14560000       0.30040000       1.24250000
C       -1.29370000      -0.67000000       0.17280000
O       -2.04640000      -0.62180000      -1.07960000
C       -2.33650000      -2.01750000      -0.97120000
C       -1.08970000      -2.83440000      -1.06450000
C       -1.47390000      -2.18920000       0.25510000
H        0.97520000       1.88290000      -0.42240000
H       -0.52310000       1.52040000      -1.31230000
H       -0.59470000       2.01590000       0.38650000
H        0.66720000      -0.57480000      -0.67670000
H        0.28990000       0.36900000       2.19700000
H        0.83270000      -1.25140000       1.70640000
H        2.59840000       0.24000000       2.08830000
H       -1.88740000      -0.16800000       0.95100000
H       -3.33830000      -2.34850000      -1.21830000
H       -1.23650000      -3.91000000      -1.08710000
H       -0.25120000      -2.47290000      -1.65190000
H       -1.64510000      -2.75690000       1.15940000
