20
Properties=species:S:1:pos:R:3 gdb_120469=T pbc="F F F"
C       -0.17430000       1.35340000      -0.03690000
O        0.01170000      -0.04230000      -0.03130000
C        0.64020000      -0.51590000      -1.20240000
C        0.73750000      -2.02540000      -1.11340000
N       -0.48840000      -2.79670000      -1.45060000
C        0.24670000      -3.75060000      -2.33140000
C       -0.37240000      -4.02840000      -3.69240000
C        1.44020000      -2.78170000      -2.25490000
O        2.45280000      -2.63160000      -2.87080000
H        0.78330000       1.89320000      -0.10950000
H       -0.81390000       1.67690000      -0.87310000
H       -0.66060000       1.62210000       0.90400000
H        0.06320000      -0.23620000      -2.09800000
H        1.65470000      -0.09390000      -1.30490000
H        1.18820000      -2.29070000      -0.14430000
H       -0.94780000      -3.22100000      -0.65370000
H        0.51330000      -4.69700000      -1.83340000
H       -0.63240000      -3.09180000      -4.19260000
H        0.33290000      -4.58030000      -4.32160000
H       -1.28350000      -4.62600000      -3.59040000
