15
Properties=species:S:1:pos:R:3 gdb_44166=T pbc="F F F"
O        0.25500000       0.07810000       0.27910000
C        0.17120000       1.25690000       0.09670000
N       -0.94190000       2.11130000      -0.02400000
C       -0.10350000       3.30560000      -0.12680000
C        0.84850000       3.45760000       1.02200000
C        0.51350000       3.11050000       2.46670000
C        1.71680000       2.89270000       3.26970000
N        2.67640000       2.74160000       3.89490000
C        1.14040000       2.42680000      -0.07010000
H       -1.78470000       2.03370000       0.53360000
H       -0.34410000       4.08820000      -0.83410000
H        1.49460000       4.32870000       0.93210000
H       -0.05970000       3.92770000       2.92080000
H       -0.11070000       2.21330000       2.52200000
H        2.04030000       2.45250000      -0.66680000
