20
Properties=species:S:1:pos:R:3 gdb_94208=T pbc="F F F"
O       -0.31860000       1.44680000       0.04590000
C       -0.08620000       0.05020000       0.02490000
C        0.31340000      -0.66960000       1.33660000
C       -0.75760000      -1.75030000       1.01670000
C       -1.41990000      -0.76640000       0.00820000
O       -2.44290000      -0.01120000       0.63100000
C       -1.89390000      -1.33390000      -1.30980000
C       -3.30050000      -1.77350000      -1.46950000
N       -2.81220000      -0.56400000      -2.15900000
H        0.37230000       1.87020000       0.56420000
H        0.56470000      -0.22370000      -0.81510000
H        1.35280000      -0.98840000       1.43810000
H        0.03120000      -0.07280000       2.20830000
H       -0.33490000      -2.62760000       0.51990000
H       -1.40430000      -2.07180000       1.83360000
H       -2.13080000       0.90670000       0.62540000
H       -1.11880000      -1.86230000      -1.86330000
H       -3.53680000      -2.61070000      -2.12000000
H       -3.96290000      -1.64040000      -0.61960000
H       -3.12250000       0.24230000      -1.61840000
