17
Properties=species:S:1:pos:R:3 gdb_71637=T pbc="F F F"
O        0.11940000       1.34270000       0.11560000
C        0.06890000      -0.03140000       0.05160000
C        0.61970000      -0.98670000       1.12090000
C        0.03370000      -1.92540000       0.02890000
C       -1.19030000      -0.95440000      -0.03590000
O       -1.93630000      -0.88530000      -1.23400000
C       -1.19180000      -1.39740000      -2.31280000
O        0.12860000      -0.91070000      -2.32030000
C        0.69200000      -0.97750000      -1.02630000
H       -0.29690000       1.68810000      -0.68320000
H        1.70510000      -1.00960000       1.24140000
H        0.10400000      -0.98990000       2.08380000
H        0.02890000      -3.01190000       0.04510000
H       -1.88690000      -0.94630000       0.80520000
H       -1.17670000      -2.49870000      -2.25850000
H       -1.67420000      -1.07360000      -3.23740000
H        1.77970000      -0.99130000      -1.12380000
