18
Properties=species:S:1:pos:R:3 gdb_96290=T pbc="F F F"
C        0.18510000       1.37000000       0.26180000
C       -0.27640000      -0.00090000      -0.21830000
C        0.74030000      -0.63880000      -1.16400000
O        0.37240000      -1.91720000      -1.65650000
C       -0.07800000      -2.81300000      -0.67600000
O        0.66960000      -2.72750000       0.52780000
C        0.36830000      -1.70080000       1.38590000
N        0.87100000      -1.59530000       2.53640000
O       -0.56270000      -0.82930000       0.94240000
H        1.13390000       1.28960000       0.80080000
H        0.31700000       2.05160000      -0.58460000
H       -0.55670000       1.79590000       0.94050000
H       -1.24110000       0.07750000      -0.73010000
H        0.84770000       0.00070000      -2.04410000
H        1.72020000      -0.68840000      -0.66840000
H       -1.14030000      -2.65920000      -0.45420000
H        0.09200000      -3.81910000      -1.06320000
H        1.46180000      -2.40410000       2.72780000
