20
Properties=species:S:1:pos:R:3 gdb_73056=T pbc="F F F"
C       -0.12690000       1.46290000       0.10860000
C       -0.06190000      -0.03080000      -0.02400000
C       -0.90890000      -0.84490000      -1.00710000
C       -1.14850000      -1.83830000       0.15450000
N       -0.37370000      -0.98700000       1.13070000
C        1.00240000      -0.85630000       0.59240000
C        1.76970000      -1.98480000      -0.07980000
C        2.04550000      -3.10930000       0.89920000
O        1.66740000      -4.24330000       0.75570000
H        0.38160000       1.94980000      -0.73230000
H       -1.16510000       1.81190000       0.11970000
H        0.35240000       1.79570000       1.03370000
H       -1.81780000      -0.31650000      -1.30230000
H       -0.41300000      -1.20700000      -1.91320000
H       -2.18960000      -1.89100000       0.47700000
H       -0.76490000      -2.85620000       0.04440000
H        1.61210000      -0.31110000       1.31170000
H        1.25910000      -2.40250000      -0.94870000
H        2.73450000      -1.58060000      -0.41640000
H        2.62790000      -2.80880000       1.80040000
