17
Properties=species:S:1:pos:R:3 gdb_48285=T pbc="F F F"
O       -0.42260000       0.20770000      -0.09810000
C       -0.13190000       1.36920000      -0.09500000
N        1.15920000       1.91040000      -0.00890000
C        1.30510000       3.37060000       0.04850000
C        1.27750000       3.92880000       1.45470000
C        0.80710000       5.31660000       1.68480000
N        0.00820000       4.17190000       2.15310000
C        2.32200000       1.12600000       0.04250000
O        2.37780000      -0.07040000       0.04380000
H       -0.88410000       2.18080000      -0.17730000
H        2.24990000       3.63340000      -0.43840000
H        0.50700000       3.82290000      -0.55020000
H        2.05400000       3.53060000       2.10580000
H        1.25300000       5.91970000       2.46970000
H        0.45560000       5.88320000       0.82550000
H       -0.78170000       4.01920000       1.52970000
H        3.22080000       1.77500000       0.07430000
