25
Properties=species:S:1:pos:R:3 gdb_109667=T pbc="F F F"
C        0.19050000       1.50390000      -0.23760000
C       -0.15270000       0.05510000       0.13680000
C        0.66430000      -0.48590000       1.30470000
C        0.37870000       0.17820000       2.64170000
C        1.03030000      -1.97000000       1.35350000
C        0.59540000      -2.96740000       0.29980000
C        2.08390000      -0.91580000       1.05500000
O        2.57200000      -0.77910000      -0.24520000
C        3.72390000      -1.56280000      -0.48550000
H        1.24470000       1.58360000      -0.51720000
H       -0.41330000       1.83600000      -1.08830000
H        0.00240000       2.19870000       0.58690000
H       -1.21790000      -0.01880000       0.39490000
H       -0.00440000      -0.57160000      -0.74490000
H       -0.67210000       0.04350000       2.92580000
H        0.99290000      -0.25040000       3.44010000
H        0.58130000       1.25430000       2.61370000
H        1.06960000      -2.38560000       2.35840000
H        0.82070000      -2.61510000      -0.70920000
H        1.11650000      -3.92110000       0.43850000
H       -0.47980000      -3.17090000       0.35500000
H        2.83090000      -0.70150000       1.82280000
H        3.52400000      -2.63540000      -0.35560000
H        4.03160000      -1.37730000      -1.51750000
H        4.54820000      -1.28070000       0.18730000
