19
Properties=species:S:1:pos:R:3 gdb_73029=T pbc="F F F"
C        0.40130000       1.37780000       0.43500000
C        0.16170000      -0.08650000       0.26410000
O       -0.06900000      -0.55790000      -1.07420000
C       -1.07600000      -1.48700000      -0.59320000
C       -0.81440000      -1.09190000       0.85520000
C        0.67430000      -1.18790000       1.15150000
C        1.54800000      -2.33580000       0.75620000
C        2.26640000      -2.42260000      -0.52420000
O        2.95260000      -2.06210000       0.67400000
H        1.33960000       1.66870000      -0.05030000
H       -0.40940000       1.96170000      -0.01140000
H        0.47810000       1.63290000       1.49550000
H       -2.06790000      -1.19240000      -0.95290000
H       -0.86630000      -2.52020000      -0.89200000
H       -1.56440000      -0.98450000       1.62760000
H        0.89530000      -0.82270000       2.15400000
H        1.32200000      -3.27310000       1.26940000
H        2.51740000      -3.40410000      -0.92610000
H        2.13820000      -1.63080000      -1.25530000
