19
Properties=species:S:1:pos:R:3 gdb_106898=T pbc="F F F"
C       -0.29090000       1.49070000      -0.08510000
C        0.06550000       0.00430000       0.06310000
C        0.84440000      -0.52650000      -1.10100000
O        0.15750000      -0.80800000      -2.32170000
C        0.87070000      -1.89720000      -1.68530000
C        2.32470000      -1.68940000      -2.08600000
O        3.18480000      -2.39080000      -2.52910000
C        2.31150000      -0.23610000      -1.51240000
C        2.61240000       0.92630000      -2.44940000
H        0.60750000       2.11310000      -0.14300000
H       -0.87780000       1.65940000      -0.99240000
H       -0.88000000       1.83230000       0.77060000
H        0.65210000      -0.15160000       0.97670000
H       -0.84990000      -0.58910000       0.16360000
H        0.30730000      -2.79270000      -1.44910000
H        2.97640000      -0.22810000      -0.63850000
H        1.88320000       0.95780000      -3.26280000
H        2.58920000       1.88510000      -1.92230000
H        3.60840000       0.80710000      -2.88670000
