19
Properties=species:S:1:pos:R:3 gdb_22265=T pbc="F F F"
C       -0.37780000       1.37700000       0.18340000
C        0.01230000      -0.02920000      -0.13480000
N        0.39270000      -0.79930000       0.85460000
O        0.43490000      -0.50440000       2.08850000
C        0.04170000      -0.58810000      -1.54620000
O       -0.47960000       0.31610000      -2.48390000
C        1.42960000      -1.14790000      -1.97980000
N        0.98330000      -2.47950000      -1.49740000
H        1.28620000      -3.27560000      -2.04750000
H        0.72530000      -1.73870000       0.58100000
C       -0.43480000      -2.07730000      -1.65610000
H       -0.16370000       2.04020000      -0.65710000
H       -1.44570000       1.46660000       0.42820000
H        0.17000000       1.69470000       1.07460000
H       -1.34870000       0.60680000      -2.18610000
H        1.53960000      -1.07150000      -3.06920000
H        2.31760000      -0.74890000      -1.48220000
H       -1.11330000      -2.46270000      -0.88820000
H       -0.85340000      -2.25940000      -2.65480000
