18
Properties=species:S:1:pos:R:3 gdb_15998=T pbc="F F F"
O       -0.01180000       1.38940000      -0.41460000
C        0.10560000       0.02040000      -0.08190000
C       -1.25700000      -0.54960000       0.28030000
O       -2.17310000      -0.35640000      -0.83540000
C       -2.36730000      -1.78250000      -0.99390000
C       -1.46090000      -2.06110000       0.20010000
C       -0.46820000      -3.16720000       0.39390000
C       -1.66510000      -3.04170000       1.31080000
H       -0.71830000       1.43710000      -1.07120000
H        0.53580000      -0.56480000      -0.91060000
H        0.79150000      -0.04830000       0.77030000
H       -1.64470000      -0.06020000       1.18360000
H       -3.42180000      -2.06270000      -0.87610000
H       -2.00640000      -2.14020000      -1.96710000
H       -0.46040000      -3.97430000      -0.33190000
H        0.51030000      -2.92140000       0.79370000
H       -1.49620000      -2.70360000       2.32840000
H       -2.46740000      -3.76580000       1.20940000
