23
Properties=species:S:1:pos:R:3 gdb_57755=T pbc="F F F"
C       -0.04810000       1.56890000      -0.00580000
C       -0.00000000       0.02830000      -0.02530000
C       -1.41410000      -0.57840000       0.07130000
C        0.70260000      -0.46260000      -1.21190000
C        1.28210000      -0.84930000      -2.19430000
C        1.94560000      -1.34770000      -3.40510000
C        1.93100000      -2.88850000      -3.41540000
C        1.24750000      -0.78200000      -4.65700000
O        3.30030000      -0.87560000      -3.35050000
H        0.95790000       1.99360000      -0.05090000
H       -0.61410000       1.94700000      -0.86290000
H       -0.53370000       1.92210000       0.90970000
H        0.56510000      -0.30000000       0.85840000
H       -2.02340000      -0.27350000      -0.78530000
H       -1.37430000      -1.67080000       0.08690000
H       -1.91140000      -0.23690000       0.98480000
H        0.90750000      -3.27350000      -3.40730000
H        2.42970000      -3.26240000      -4.31760000
H        2.45840000      -3.27130000      -2.53910000
H        1.29960000       0.30880000      -4.65100000
H        1.74290000      -1.15360000      -5.56210000
H        0.19740000      -1.08500000      -4.69420000
H        3.74040000      -1.19720000      -4.14560000
