16
Properties=species:S:1:pos:R:3 gdb_70138=T pbc="F F F"
O        0.03100000       1.35170000      -0.09190000
C       -0.00140000      -0.03370000      -0.05140000
C       -0.50680000      -0.76690000      -1.26780000
C       -1.35260000      -0.74970000      -0.00300000
C       -1.41530000      -1.97940000       0.81180000
C       -0.30680000      -2.50880000       1.33830000
N        0.94210000      -1.87870000       1.23530000
C        1.11770000      -0.60470000       0.75670000
O        2.11790000       0.05820000       0.99020000
H        0.93150000       1.58020000       0.18970000
H       -0.81960000      -0.11310000      -2.07340000
H       -0.05320000      -1.70580000      -1.56550000
H       -2.22580000      -0.10640000      -0.02100000
H       -2.36580000      -2.47840000       0.95420000
H       -0.29490000      -3.43970000       1.89050000
H        1.71430000      -2.22930000       1.78270000
