20
Properties=species:S:1:pos:R:3 gdb_113212=T pbc="F F F"
C       -0.06630000       1.81350000       0.17230000
C       -0.10230000       0.30110000       0.19870000
O        0.91100000      -0.38130000      -0.55930000
C        0.91540000      -0.52170000       0.88120000
C        2.15300000      -0.01350000       1.57690000
O        3.24700000      -0.89030000       1.36260000
C       -1.48310000      -0.28410000       0.02560000
C       -2.01260000      -0.51210000      -1.34160000
N       -1.64660000      -1.65000000      -0.47630000
H        0.94870000       2.20350000       0.25470000
H       -0.49780000       2.17720000      -0.76550000
H       -0.66420000       2.22160000       0.99430000
H        0.60660000      -1.51400000       1.21410000
H        2.39150000       1.00810000       1.25390000
H        1.98380000       0.00600000       2.65920000
H        3.37790000      -0.94470000       0.40910000
H       -2.18000000      -0.00940000       0.81560000
H       -3.07430000      -0.40410000      -1.54260000
H       -1.35780000      -0.27910000      -2.17720000
H       -0.72990000      -1.98130000      -0.77610000
