15
Properties=species:S:1:pos:R:3 gdb_20817=T pbc="F F F"
C       -0.31050000       1.50460000       0.12400000
C        0.16680000       0.05310000      -0.05660000
C        0.80060000      -0.49300000       1.19440000
C        0.11880000      -1.32040000       2.09730000
N        0.69620000      -1.76150000       3.20420000
C        1.95810000      -1.35020000       3.37130000
N        2.65800000      -0.57220000       2.54850000
N        2.06520000      -0.13880000       1.44020000
H        0.52820000       2.14780000       0.40400000
H       -0.74290000       1.88560000      -0.80540000
H       -1.07140000       1.57810000       0.90780000
H       -0.67450000      -0.58560000      -0.34720000
H        0.90730000       0.01130000      -0.86120000
H       -0.90820000      -1.62870000       1.90890000
H        2.47860000      -1.68180000       4.26490000
