15
Properties=species:S:1:pos:R:3 gdb_16878=T pbc="F F F"
O       -0.04310000       0.11470000      -0.73420000
C       -0.06930000       1.13440000      -0.10710000
C       -1.31610000       1.99310000       0.07730000
N       -1.28620000       2.63480000       1.38590000
C       -0.16070000       3.51890000       1.50900000
C        0.92960000       3.12590000       2.48990000
C        1.11010000       2.89480000       1.01720000
O        1.06100000       1.57700000       0.51210000
H       -1.36810000       2.69700000      -0.77380000
H       -2.17200000       1.32030000       0.00160000
H       -2.16230000       3.08480000       1.61380000
H       -0.31050000       4.57710000       1.29300000
H        1.52920000       3.89950000       2.95630000
H        0.71810000       2.25410000       3.09720000
H        1.83080000       3.49630000       0.47360000
