15
Properties=species:S:1:pos:R:3 gdb_46975=T pbc="F F F"
O        0.12520000       0.00600000       0.18970000
C        0.05260000       1.17180000      -0.05930000
O       -1.10460000       1.89220000      -0.05260000
C       -0.81800000       3.30400000      -0.07060000
C        0.62010000       3.40700000      -0.61160000
C        1.68550000       4.24570000       0.15030000
N        2.69360000       3.28420000       0.64140000
C        2.29900000       2.11860000       0.32920000
N        1.10340000       2.03520000      -0.41010000
H       -1.55820000       3.79160000      -0.70620000
H       -0.90660000       3.69280000       0.95120000
H        0.61090000       3.64480000      -1.67930000
H        2.16300000       4.97890000      -0.50430000
H        1.27020000       4.79510000       1.00460000
H        2.80740000       1.19810000       0.59160000
