17
Properties=species:S:1:pos:R:3 gdb_20264=T pbc="F F F"
C       -0.04730000       1.55420000       0.06880000
C        1.50400000       1.41870000       0.00150000
C        1.79650000       0.60920000       1.26970000
C        2.08490000      -0.80810000       0.91810000
C        2.25910000      -0.91700000      -0.58290000
C        1.28180000       0.18640000      -0.94920000
C        0.02970000       0.01360000      -0.03590000
N        0.69060000      -0.39460000       1.24990000
H       -0.49280000       1.98010000       0.97120000
H       -0.47310000       2.01670000      -0.82530000
H        2.16370000       2.24900000      -0.24830000
H        2.05170000       1.06870000       2.21780000
H        2.55270000      -1.49810000       1.61150000
H        3.28750000      -0.71030000      -0.89840000
H        1.96230000      -1.89590000      -0.97550000
H        1.10090000       0.41550000      -1.99720000
H       -0.82280000      -0.61550000      -0.28990000
