16
Properties=species:S:1:pos:R:3 gdb_415=T pbc="F F F"
C       -0.31600000       1.42860000      -0.04410000
C        0.25340000       0.01060000       0.08980000
C        0.85980000      -0.51940000      -1.19900000
C        2.09480000       0.18350000      -1.72190000
C        0.61580000      -1.91810000      -1.58360000
O       -0.10900000      -0.85550000      -2.20840000
H        0.46490000       2.16550000      -0.25560000
H       -1.04900000       1.46920000      -0.85530000
H       -0.81450000       1.73450000       0.88040000
H        1.01550000      -0.01690000       0.87930000
H       -0.54660000      -0.67090000       0.39830000
H        2.91090000       0.12740000      -0.99320000
H        2.42940000      -0.27470000      -2.65560000
H        1.89340000       1.24100000      -1.91910000
H        1.32910000      -2.43660000      -2.22410000
H        0.02900000      -2.56520000      -0.93210000
