17
Properties=species:S:1:pos:R:3 gdb_35816=T pbc="F F F"
N       -0.10940000      -1.13230000      -0.17060000
C       -0.05050000       0.01720000      -0.06610000
C       -0.01110000       1.46490000       0.07780000
C       -0.49670000       1.98830000       1.46800000
N        0.06730000       3.33450000       1.60260000
C        1.35780000       3.31190000       0.92580000
C        2.47310000       2.55560000       1.68010000
O        2.37620000       1.42300000       0.78340000
C        1.39820000       2.08030000      -0.03510000
H       -0.63420000       1.90880000      -0.70940000
H       -1.58360000       2.00410000       1.56100000
H       -0.10090000       1.33490000       2.25140000
H       -0.54090000       4.00940000       1.15160000
H        1.62130000       4.29540000       0.53810000
H        3.46480000       3.02000000       1.63530000
H        2.23660000       2.29210000       2.71650000
H        1.73500000       2.19870000      -1.06920000
