18
Properties=species:S:1:pos:R:3 gdb_99396=T pbc="F F F"
O        0.08490000       0.91360000       0.96600000
C       -0.02640000      -0.16750000       0.09100000
C       -1.47120000      -0.61750000      -0.06300000
O       -2.33660000      -0.08820000       0.60290000
C       -1.79810000      -1.70950000      -1.08110000
N       -3.13830000      -2.25310000      -0.99420000
C       -3.36310000      -3.14060000       0.14190000
C       -4.67240000      -3.89660000      -0.02480000
O       -5.32520000      -4.32860000       0.88750000
H       -0.80940000       1.05150000       1.31660000
H        0.37430000       0.08420000      -0.90440000
H        0.55650000      -1.03730000       0.44280000
H       -1.64390000      -1.26580000      -2.07630000
H       -1.06150000      -2.51870000      -1.00100000
H       -3.79070000      -1.47610000      -0.93870000
H       -2.57020000      -3.90410000       0.14290000
H       -3.35130000      -2.65930000       1.13010000
H       -4.97270000      -4.03290000      -1.08850000
