14
Properties=species:S:1:pos:R:3 gdb_129103=T pbc="F F F"
N       -0.07230000       1.25880000      -0.06330000
C        0.00260000      -0.00510000       0.00510000
C       -1.26290000      -0.91050000       0.02670000
C       -0.63580000      -2.26530000      -0.01580000
C        0.72710000      -2.16640000       0.00160000
N        1.13450000      -0.83320000       0.07820000
N        1.31070000      -3.37700000      -0.01750000
N        0.33740000      -4.26870000      -0.05010000
N       -0.84080000      -3.59840000      -0.04070000
H        0.84880000       1.69900000      -0.06350000
H       -1.84060000      -0.71260000       0.93560000
H       -1.90280000      -0.66650000      -0.82620000
H        2.05940000      -0.50650000      -0.14630000
H       -1.69520000      -4.13130000      -0.06290000
