11
Properties=species:S:1:pos:R:3 gdb_3810=T pbc="F F F"
C       -0.02240000       1.38260000       0.02220000
O        0.01380000      -0.04890000      -0.02150000
C        0.61610000      -0.57460000      -1.07490000
N        1.16300000       0.12050000      -2.04690000
O        1.65420000      -0.88850000      -2.89850000
C        1.33600000      -2.04640000      -2.32310000
N        0.69860000      -1.94170000      -1.20260000
H        0.99190000       1.79240000       0.03490000
H       -0.55620000       1.78020000      -0.84600000
H       -0.54790000       1.63660000       0.94220000
H        1.63400000      -2.94950000      -2.83600000
