25
Properties=species:S:1:pos:R:3 gdb_63844=T pbc="F F F"
C        0.18200000       1.50530000       0.00330000
C       -0.05470000      -0.01790000       0.00360000
C       -1.57560000      -0.26320000       0.05570000
C        0.51920000      -0.62770000      -1.32870000
C        1.59830000      -1.69360000      -1.12390000
C        1.14660000      -2.72400000      -0.05300000
C        1.67270000      -1.70490000       0.99440000
C        2.65670000      -1.20400000      -0.09800000
C        0.61100000      -0.64150000       1.28570000
H        1.25050000       1.74290000      -0.03300000
H       -0.29430000       1.97770000      -0.86350000
H       -0.23200000       1.96830000       0.90640000
H       -2.07670000       0.18440000      -0.81030000
H       -1.80720000      -1.33360000       0.05800000
H       -2.01440000       0.17470000       0.95960000
H       -0.30140000      -1.06490000      -1.91060000
H        0.93300000       0.17770000      -1.94770000
H        1.95350000      -2.07500000      -2.08520000
H        0.08990000      -3.00760000      -0.01730000
H        1.75870000      -3.63000000      -0.07930000
H        2.09440000      -2.09620000       1.92430000
H        3.56570000      -1.81100000      -0.13310000
H        2.93380000      -0.14490000      -0.10210000
H        1.06760000       0.15740000       1.88260000
H       -0.16680000      -1.08520000       1.91920000
