22
Properties=species:S:1:pos:R:3 gdb_122908=T pbc="F F F"
C        0.12430000       1.55700000      -0.04040000
C        0.03220000       0.04100000      -0.02180000
O        0.68090000      -0.46420000      -1.17290000
C        0.64990000      -1.86850000      -1.26120000
C        1.34840000      -2.26650000      -2.55790000
C        1.51350000      -3.79500000      -2.72040000
C        0.17710000      -4.55560000      -2.84220000
C        2.35790000      -4.07820000      -3.88670000
N        3.01470000      -4.29920000      -4.81170000
H        1.16980000       1.87790000      -0.04090000
H       -0.35790000       1.95960000      -0.93570000
H       -0.36880000       1.97920000       0.84010000
H        0.50480000      -0.36550000       0.88850000
H       -1.02220000      -0.28370000      -0.00830000
H        1.16360000      -2.32420000      -0.39500000
H       -0.39190000      -2.22890000      -1.24190000
H        0.79050000      -1.86440000      -3.41020000
H        2.33420000      -1.79190000      -2.57170000
H        2.05320000      -4.17920000      -1.84410000
H       -0.40750000      -4.17540000      -3.68480000
H        0.35060000      -5.62260000      -3.00130000
H       -0.41320000      -4.43870000      -1.93050000
