21
Properties=species:S:1:pos:R:3 gdb_69517=T pbc="F F F"
C       -0.02800000       1.53160000       0.08370000
C        0.00860000       0.03020000       0.02110000
C       -0.91830000      -0.83980000       0.83310000
C        0.57150000      -0.95550000       1.03410000
C        1.30600000      -1.70400000      -0.11620000
O        2.62320000      -2.11000000       0.01380000
C        0.39290000      -2.21570000      -1.19860000
C        0.75440000      -0.73780000      -1.13390000
C        1.43630000      -0.03320000      -2.27210000
H        0.96020000       1.97260000      -0.08690000
H       -0.71150000       1.95140000      -0.66490000
H       -0.37190000       1.86640000       1.06780000
H       -1.43260000      -0.30650000       1.62900000
H       -1.51500000      -1.64050000       0.41060000
H        1.06160000      -0.73610000       1.97510000
H        2.62870000      -3.00600000       0.37020000
H        0.93350000      -2.73500000      -1.98580000
H       -0.60350000      -2.60810000      -1.02630000
H        0.71500000       0.32510000      -3.01660000
H        2.01450000       0.83040000      -1.92700000
H        2.13030000      -0.71020000      -2.77910000
