15
Properties=species:S:1:pos:R:3 gdb_85587=T pbc="F F F"
C        0.02420000       1.59660000       0.20220000
C        0.09020000       0.08230000      -0.00610000
O        0.77210000      -0.24460000      -1.23380000
C        2.11310000      -0.37160000      -1.23350000
O        2.73270000      -0.45300000      -2.25510000
C        2.78110000      -0.40440000       0.13170000
O        1.97410000      -0.93650000       1.18560000
C        0.66040000      -0.62970000       1.21610000
O       -0.01520000      -0.90840000       2.16520000
H        1.01640000       2.02990000       0.36060000
H       -0.42170000       2.06620000      -0.67750000
H       -0.59220000       1.81680000       1.07730000
H       -0.91850000      -0.31110000      -0.14030000
H        3.66280000      -1.04070000       0.06140000
H        3.11390000       0.60900000       0.39090000
