23
Properties=species:S:1:pos:R:3 gdb_101357=T pbc="F F F"
C       -0.13080000       1.50540000      -0.01140000
C        0.01180000      -0.01960000      -0.10500000
C        0.79870000      -0.42600000      -1.35100000
O        0.09230000       0.02570000      -2.49940000
C        0.66680000      -0.59890000       1.15150000
C       -0.09680000      -0.52040000       2.52190000
C        0.07040000      -2.03630000       2.68420000
C       -0.58450000      -2.75120000       1.53830000
C        0.76850000      -2.12570000       1.32600000
H        0.85010000       1.98120000       0.11300000
H       -0.58550000       1.90530000      -0.92030000
H       -0.75110000       1.79510000       0.84240000
H       -0.99200000      -0.45190000      -0.21360000
H        1.80850000       0.01750000      -1.30810000
H        0.91890000      -1.52010000      -1.36980000
H        0.60160000      -0.21340000      -3.27880000
H        1.65960000      -0.14830000       1.27030000
H        0.44030000       0.06700000       3.26940000
H       -1.13250000      -0.16470000       2.48070000
H        0.31930000      -2.54400000       3.60800000
H       -0.58010000      -3.83490000       1.60020000
H       -1.47580000      -2.34080000       1.06970000
H        1.62480000      -2.72850000       1.04600000
