25
Properties=species:S:1:pos:R:3 gdb_120550=T pbc="F F F"
C       -0.47110000       1.36550000       0.36500000
C       -0.16260000      -0.12700000       0.22300000
C        0.84130000      -0.63520000       1.26400000
C        1.10570000      -2.12530000       1.14620000
C        1.87030000      -2.84080000       2.28020000
C        0.62540000      -3.74950000       2.36120000
C       -0.11460000      -3.86410000       3.68210000
C       -1.47980000      -4.54110000       3.52990000
O       -0.07910000      -2.92450000       1.39810000
H        0.43410000       1.97220000       0.24720000
H       -1.19380000       1.69720000      -0.38710000
H       -0.89140000       1.59030000       1.35170000
H       -1.08490000      -0.71120000       0.31740000
H        0.22750000      -0.32870000      -0.78350000
H        1.79790000      -0.10330000       1.15930000
H        0.46820000      -0.42180000       2.27440000
H        1.50740000      -2.35470000       0.14720000
H        2.81190000      -3.32090000       2.00990000
H        2.02170000      -2.22170000       3.16880000
H        0.79680000      -4.75300000       1.94200000
H        0.51690000      -4.42600000       4.38370000
H       -0.24020000      -2.85810000       4.10150000
H       -2.09570000      -3.99380000       2.81080000
H       -1.37430000      -5.56970000       3.16720000
H       -2.01480000      -4.57590000       4.48350000
