16
Properties=species:S:1:pos:R:3 gdb_37992=T pbc="F F F"
C       -1.88860000       0.23110000       0.50600000
C        3.42110000       1.10280000      -0.07290000
C        2.80810000       0.33700000      -1.11750000
C        1.61390000      -0.13220000      -0.54490000
C        0.28040000      -0.18580000      -0.85110000
C       -0.53230000       0.14870000       0.35030000
C        0.42510000       0.42660000       1.35790000
C        1.79210000       0.04140000       0.94500000
N        2.85480000       1.05470000       1.11400000
H       -2.31550000       0.60860000       1.42620000
H       -2.57130000      -0.07050000      -0.27780000
H        4.28090000       1.75080000      -0.23000000
H        3.04690000       0.41640000      -2.16910000
H       -0.14590000      -0.25990000      -1.84470000
H        0.17750000       0.81040000       2.34290000
H        2.11730000      -0.90360000       1.42180000
