25
Properties=species:S:1:pos:R:3 gdb_122886=T pbc="F F F"
C       -0.33190000       1.26070000       0.38230000
O        0.00140000      -0.08750000       0.16580000
C        0.19770000      -0.39120000      -1.19600000
C        0.46410000      -1.87750000      -1.34000000
O       -0.75060000      -2.56340000      -1.13480000
C       -0.70600000      -3.98290000      -0.92170000
C       -0.02280000      -4.31070000       0.41650000
C       -2.18450000      -4.38080000      -0.86670000
C       -0.00590000      -4.70030000      -2.08660000
H        0.46000000       1.94240000       0.03030000
H       -1.26950000       1.53790000      -0.12580000
H       -0.46070000       1.39840000       1.45880000
H       -0.69130000      -0.12260000      -1.79010000
H        1.05520000       0.17430000      -1.60120000
H        0.86950000      -2.06780000      -2.34630000
H        1.23130000      -2.16410000      -0.60760000
H       -0.47630000      -3.72620000       1.22190000
H       -0.13580000      -5.37380000       0.65100000
H        1.04930000      -4.09420000       0.39670000
H       -2.68030000      -4.12600000      -1.80770000
H       -2.29400000      -5.45520000      -0.69260000
H       -2.68900000      -3.84180000      -0.06000000
H        1.05950000      -4.45550000      -2.13580000
H       -0.08790000      -5.78520000      -1.96830000
H       -0.46820000      -4.42370000      -3.03920000
