20
Properties=species:S:1:pos:R:3 gdb_86579=T pbc="F F F"
C       -0.75840000       1.03930000      -0.06270000
C        0.23210000      -0.10220000       0.07630000
N        1.55490000       0.11410000      -0.57600000
C        2.26760000      -0.45170000       0.58010000
C        0.96120000      -0.30950000       1.44090000
O        0.94810000       0.75210000       2.35650000
C        2.73150000      -1.89080000       0.42050000
C        3.56910000      -2.45670000       1.54980000
O        2.44110000      -2.53520000      -0.56400000
H       -0.32510000       1.98960000       0.26310000
H       -1.05550000       1.15550000      -1.11000000
H       -1.65950000       0.84950000       0.52950000
H       -0.23880000      -1.04470000      -0.23470000
H        1.69290000      -0.44910000      -1.41130000
H        3.10080000       0.15920000       0.95500000
H        0.66030000      -1.19320000       2.00740000
H        1.20900000       1.55480000       1.89130000
H        3.15600000      -2.18550000       2.52680000
H        3.64200000      -3.54080000       1.45560000
H        4.57660000      -2.02660000       1.50060000
