22
Properties=species:S:1:pos:R:3 gdb_115867=T pbc="F F F"
C        0.09010000       1.48840000       0.02210000
C       -0.03820000      -0.01560000       0.01020000
C       -0.61130000      -0.74440000       1.17760000
N        0.83760000      -0.78160000       0.92190000
C        1.27330000      -1.99130000       0.19710000
C        0.36210000      -2.16610000      -1.03800000
C       -0.11390000      -0.72940000      -1.34250000
C       -1.47730000      -0.65770000      -2.01660000
O       -1.37600000      -1.31460000      -3.27320000
H        0.94090000       1.81240000      -0.58830000
H       -0.81090000       1.96770000      -0.37770000
H        0.24600000       1.85380000       1.04020000
H       -0.89710000      -0.18850000       2.06670000
H       -1.19790000      -1.64420000       1.00880000
H        2.31230000      -1.82490000      -0.10870000
H        1.26320000      -2.85780000       0.86620000
H        0.88120000      -2.62010000      -1.88380000
H       -0.49490000      -2.81060000      -0.81540000
H        0.60710000      -0.24350000      -2.01390000
H       -2.23160000      -1.14040000      -1.37400000
H       -1.77980000       0.39380000      -2.14510000
H       -2.23700000      -1.28300000      -3.70030000
