20
Properties=species:S:1:pos:R:3 gdb_119122=T pbc="F F F"
C        3.51140000       0.54340000      -1.38280000
N        2.79880000      -0.73320000      -1.37000000
H        3.16940000      -1.34280000      -2.09380000
H        2.50620000      -1.77030000       0.03230000
C        1.34500000      -0.60880000      -1.54990000
C        0.65950000      -1.95620000      -1.42440000
C       -0.70310000      -2.12200000      -2.05600000
C        0.47180000      -2.80440000      -2.68130000
C        0.88770000      -2.75990000      -0.15710000
O        0.15380000      -3.65480000       0.18260000
O        1.97290000      -2.42810000       0.55290000
H        3.33440000       1.13070000      -2.29740000
H        3.19040000       1.14590000      -0.52740000
H        4.58500000       0.36360000      -1.28660000
H        0.98230000       0.06980000      -0.76710000
H        1.08160000      -0.14790000      -2.51590000
H       -1.40010000      -2.73670000      -1.50060000
H       -1.12640000      -1.25880000      -2.55810000
H        0.86730000      -2.40980000      -3.61220000
H        0.55470000      -3.87790000      -2.56160000
