14
Properties=species:S:1:pos:R:3 gdb_4140=T pbc="F F F"
O       -0.16290000       1.37570000       0.09360000
N        0.00650000      -0.02700000       0.07910000
C       -1.09910000      -0.62040000      -0.01760000
C       -2.61140000      -0.45100000      -0.03550000
N       -2.60760000      -1.59400000      -1.04820000
C       -1.60700000      -2.04660000       0.01190000
C       -2.60890000      -1.53270000       1.11570000
O       -2.21050000      -1.25160000       2.41380000
H        0.74910000       1.68540000       0.11550000
H       -3.21280000       0.44630000      -0.15830000
H       -3.47230000      -2.13440000      -0.92410000
H       -1.05590000      -2.98220000      -0.05600000
H       -3.53660000      -2.11020000       1.16750000
H       -1.37860000      -0.76070000       2.38380000
