15
Properties=species:S:1:pos:R:3 gdb_21279=T pbc="F F F"
C       -0.03690000       1.34450000      -0.05450000
O       -0.08910000      -0.06460000      -0.26660000
C       -1.28120000      -0.63530000      -0.08290000
N       -1.42440000      -1.94220000      -0.25940000
N       -2.74780000      -2.10990000       0.01940000
C       -3.34810000      -3.42200000      -0.05090000
C       -3.30240000      -0.93040000       0.33680000
N       -2.40240000       0.04010000       0.28440000
H        0.99660000       1.63300000      -0.25000000
H       -0.71120000       1.87160000      -0.73650000
H       -0.31140000       1.59930000       0.97370000
H       -4.40580000      -3.33810000       0.20580000
H       -3.24980000      -3.82770000      -1.06120000
H       -2.85590000      -4.09980000       0.65140000
H       -4.34530000      -0.82080000       0.59520000
