16
Properties=species:S:1:pos:R:3 gdb_124711=T pbc="F F F"
C       -0.48310000       1.48570000       0.23270000
C       -0.04030000       0.05910000       0.00040000
N        0.04380000      -0.70890000       1.12030000
N        0.24020000      -0.51560000      -1.12390000
C        0.16500000       0.07380000      -2.34430000
C        0.45140000      -0.46390000      -3.57420000
C        0.19930000       0.59160000      -4.47630000
N       -0.20640000       1.68810000      -3.87910000
O       -0.23120000       1.36590000      -2.51630000
H        0.25810000       2.18070000      -0.16730000
H       -1.41360000       1.68210000      -0.30410000
H       -0.63540000       1.69100000       1.29500000
H        0.02890000      -0.29280000       2.03350000
H        0.42790000      -1.63500000       1.02160000
H        0.78860000      -1.46560000      -3.77580000
H        0.29800000       0.59750000      -5.55340000
