23
Properties=species:S:1:pos:R:3 gdb_36979=T pbc="F F F"
C       -0.03400000       1.56070000       0.21440000
C       -0.00090000       0.02850000       0.12240000
C       -1.38610000      -0.60520000       0.14430000
C       -2.25440000      -0.48070000      -1.13090000
O       -2.33140000      -1.91250000      -1.27830000
C       -1.48300000      -2.12310000      -0.13170000
C        1.34200000       2.19070000       0.17100000
C        2.00990000       2.47670000      -1.15160000
C        1.52360000       3.61470000      -0.28690000
H       -0.63800000       1.96400000      -0.61010000
H       -0.54750000       1.85720000       1.13980000
H        0.52170000      -0.26990000      -0.79630000
H        0.59250000      -0.37240000       0.95580000
H       -1.92300000      -0.30530000       1.04950000
H       -3.24560000      -0.02730000      -1.00800000
H       -1.75330000      -0.00660000      -1.98690000
H       -0.53380000      -2.60430000      -0.40610000
H       -1.97650000      -2.72890000       0.63830000
H        2.00480000       1.86560000       0.97000000
H        3.07860000       2.31670000      -1.24180000
H        1.45260000       2.25720000      -2.05720000
H        0.64190000       4.15700000      -0.61350000
H        2.26000000       4.23150000       0.21630000
