19
Properties=species:S:1:pos:R:3 gdb_112274=T pbc="F F F"
C        0.38740000       1.47720000      -0.15830000
N       -0.22150000       0.21280000       0.26050000
C        0.51450000      -0.44320000       1.32360000
C        0.09280000      -1.89420000       1.67370000
C       -0.94350000      -2.59210000       0.81380000
O       -0.93040000      -3.98680000       1.05550000
O        1.44080000      -2.36850000       1.30490000
C        1.82180000      -1.10360000       0.90880000
N        2.88990000      -0.69640000       0.39520000
H        1.38630000       1.27940000      -0.55320000
H       -0.22110000       1.92070000      -0.95090000
H        0.48670000       2.21200000       0.65950000
H       -1.16810000       0.39020000       0.58280000
H        0.65690000       0.18080000       2.22310000
H       -0.08040000      -2.09360000       2.73460000
H       -1.94580000      -2.23660000       1.07850000
H       -0.76740000      -2.34850000      -0.24160000
H       -0.04010000      -4.29390000       0.84860000
H        3.55140000      -1.46140000       0.24920000
