20
Properties=species:S:1:pos:R:3 gdb_85918=T pbc="F F F"
C       -0.02470000       1.47920000       0.23900000
C       -0.07680000      -0.01560000      -0.05180000
C       -1.50340000      -0.48030000      -0.35190000
C        0.94210000      -0.47070000      -1.12070000
C        1.38200000      -1.84850000      -0.61780000
O        2.68040000      -2.21680000      -0.99910000
C        1.25000000      -1.67930000       0.88440000
N        1.92810000      -2.36320000       1.70220000
O        0.36740000      -0.70010000       1.17350000
H        0.98390000       1.77790000       0.53630000
H       -0.30470000       2.04640000      -0.65420000
H       -0.71670000       1.74260000       1.04430000
H       -1.90130000       0.05220000      -1.22130000
H       -1.53940000      -1.55270000      -0.56330000
H       -2.15440000      -0.27900000       0.50340000
H        0.51090000      -0.48560000      -2.12330000
H        1.81630000       0.18740000      -1.12720000
H        0.65560000      -2.61480000      -0.93780000
H        3.06190000      -2.64970000      -0.22040000
H        1.74830000      -2.09890000       2.67050000
