25
Properties=species:S:1:pos:R:3 gdb_101456=T pbc="F F F"
C       -0.08440000       1.56900000      -0.09460000
C       -0.00390000       0.04330000       0.02800000
C        0.72580000      -0.47180000       1.28580000
C       -0.00710000      -0.05020000       2.56850000
C        0.91380000      -2.00640000       1.21830000
C        1.73150000      -2.49620000      -0.01350000
C        2.57530000      -3.70080000       0.47410000
C        2.57680000      -3.52440000       1.97230000
C        1.68250000      -2.62290000       2.37170000
H        0.91310000       2.02150000      -0.05360000
H       -0.53920000       1.85850000      -1.04730000
H       -0.68470000       2.01840000       0.70190000
H       -1.01820000      -0.38070000       0.01050000
H        0.50100000      -0.34750000      -0.86240000
H        1.73030000      -0.02140000       1.30140000
H       -0.12720000       1.03510000       2.62550000
H       -1.00840000      -0.49670000       2.61030000
H        0.53320000      -0.36000000       3.46690000
H       -0.09690000      -2.44860000       1.19490000
H        1.10080000      -2.74520000      -0.87010000
H        2.40530000      -1.69240000      -0.33280000
H        2.11440000      -4.66050000       0.19930000
H        3.58160000      -3.71230000       0.03980000
H        3.20950000      -4.11000000       2.63100000
H        1.47950000      -2.37710000       3.40760000
