19
Properties=species:S:1:pos:R:3 gdb_67458=T pbc="F F F"
O       -0.10440000       1.39720000       0.08660000
C        0.01710000       0.02090000      -0.01690000
C       -1.30720000      -0.79970000       0.02860000
C       -0.91330000      -1.46040000      -1.33630000
C        0.49310000      -0.84930000      -1.22610000
O        1.33430000      -1.61980000      -0.33560000
C        0.99250000      -0.82060000       0.83120000
C        0.18130000      -1.58810000       1.86820000
C       -1.25210000      -1.71780000       1.27420000
H        0.77160000       1.79090000       0.00610000
H       -2.21290000      -0.19420000      -0.01840000
H       -0.95270000      -2.55140000      -1.39190000
H       -1.47690000      -1.03320000      -2.17130000
H        1.02540000      -0.51370000      -2.11950000
H        1.88240000      -0.32050000       1.23550000
H        0.64260000      -2.55380000       2.09390000
H        0.16390000      -1.01160000       2.80030000
H       -2.00060000      -1.42020000       2.01390000
H       -1.48020000      -2.75130000       0.99830000
