13
Properties=species:S:1:pos:R:3 gdb_4324=T pbc="F F F"
O       -0.02390000       1.36270000       0.00840000
C       -0.00340000       0.00970000       0.00070000
C       -1.16830000      -0.68160000       0.00350000
C       -1.18730000      -2.12250000      -0.00440000
N       -2.23750000      -2.83580000      -0.00250000
O        0.07850000      -2.75630000      -0.01510000
C        1.21340000      -2.04320000      -0.01760000
C        1.25320000      -0.70050000      -0.01030000
H        0.87730000       1.70070000       0.00510000
H       -2.12460000      -0.17760000       0.01170000
H       -2.00160000      -3.82760000      -0.00940000
H        2.09030000      -2.68010000      -0.02610000
H        2.20480000      -0.18330000      -0.01280000
