24
Properties=species:S:1:pos:R:3 gdb_13893=T pbc="F F F"
C        0.19620000       1.42000000       0.22890000
C       -0.24980000      -0.02300000      -0.05550000
C       -1.75230000      -0.07760000      -0.37400000
C        0.56150000      -0.61980000      -1.19480000
C        1.94850000      -1.21180000      -1.02550000
C        2.66400000      -1.29460000       0.30770000
C        0.78000000      -2.10900000      -1.38790000
C        0.23150000      -3.16250000      -0.44670000
H        1.25610000       1.46520000       0.49690000
H        0.04970000       2.05310000      -0.65450000
H       -0.38070000       1.85890000       1.05020000
H       -0.08180000      -0.60840000       0.85590000
H       -1.97790000       0.49460000      -1.28200000
H       -2.08900000      -1.10560000      -0.53800000
H       -2.34640000       0.34830000       0.44180000
H        0.42030000      -0.06210000      -2.12050000
H        2.63010000      -1.00550000      -1.84800000
H        1.98590000      -1.47080000       1.14580000
H        3.39720000      -2.10940000       0.30530000
H        3.20770000      -0.36680000       0.51830000
H        0.76760000      -2.43560000      -2.42560000
H        0.20620000      -2.83310000       0.59460000
H       -0.79110000      -3.44130000      -0.72490000
H        0.84030000      -4.07320000      -0.48540000
