24
Properties=species:S:1:pos:R:3 gdb_111314=T pbc="F F F"
C       -0.01290000       1.65960000      -0.06330000
C       -0.15390000       0.13290000      -0.04970000
C        0.66030000      -0.52720000      -1.15420000
N        2.16310000      -0.33680000      -1.10870000
C        2.66310000      -1.07920000       0.06540000
C        2.30920000      -1.84850000      -1.13940000
C        0.79850000      -2.08980000      -1.27400000
C        0.13820000      -2.97730000      -0.21810000
C        0.43150000      -2.57810000      -2.67780000
H        1.03340000       1.95430000       0.05920000
H       -0.36440000       2.07940000      -1.01210000
H       -0.59410000       2.11820000       0.74230000
H        0.13230000      -0.25260000       0.93510000
H       -1.20660000      -0.14720000      -0.18680000
H        0.32850000      -0.11330000      -2.11280000
H        3.71740000      -0.89450000       0.24920000
H        2.06280000      -1.15020000       0.96740000
H        3.06050000      -2.32650000      -1.76280000
H        0.38130000      -2.67360000       0.80320000
H       -0.95300000      -2.95930000      -0.31880000
H        0.46150000      -4.01770000      -0.33850000
H        0.72580000      -3.62470000      -2.81920000
H       -0.64950000      -2.51120000      -2.84480000
H        0.93050000      -1.98210000      -3.44870000
