18
Properties=species:S:1:pos:R:3 gdb_65246=T pbc="F F F"
O        0.03640000       1.30940000       0.42830000
C        0.06100000      -0.04460000       0.08640000
C        1.08150000      -0.44670000      -0.92730000
C        1.25290000      -0.87250000       0.51910000
C       -1.31870000      -0.65290000       0.06310000
N       -2.16390000      -0.21060000       1.21730000
C       -3.29140000       0.21910000       0.34490000
C       -2.37660000      -0.01290000      -0.86980000
O       -2.44990000       0.19830000      -2.04000000
H       -0.54000000       1.35770000       1.20560000
H        0.81550000      -1.19420000      -1.66650000
H        1.72240000       0.34630000      -1.29440000
H        2.00670000      -0.35500000       1.10090000
H        1.11160000      -1.91790000       0.77410000
H       -1.26850000      -1.74010000      -0.08710000
H       -2.39820000      -0.94610000       1.87260000
H       -4.16590000      -0.44530000       0.33580000
H       -3.63000000       1.24680000       0.51200000
