17
Properties=species:S:1:pos:R:3 gdb_88724=T pbc="F F F"
O       -0.14920000       1.47440000      -0.07270000
C       -0.04580000       0.08050000      -0.05730000
C       -0.41510000      -0.66820000       1.19530000
C       -1.33750000      -0.68810000      -0.01360000
C       -2.63300000       0.04240000       0.04760000
O       -3.43410000       0.04640000      -1.13420000
C       -3.93830000      -0.65880000       0.01330000
C       -4.04410000      -2.09070000      -0.07770000
C       -4.16040000      -3.28620000      -0.12980000
H        0.57700000       1.83250000       0.44820000
H        0.74910000      -0.32710000      -0.68120000
H        0.11710000      -1.57620000       1.45500000
H       -0.73050000      -0.06520000       2.04100000
H       -1.37760000      -1.60730000      -0.58700000
H       -2.60150000       0.99970000       0.56580000
H       -4.78610000      -0.16980000       0.49360000
H       -4.26240000      -4.34200000      -0.18390000
