12
Properties=species:S:1:pos:R:3 gdb_133318=T pbc="F F F"
N       -0.01180000       1.36690000      -0.14240000
C       -0.00290000      -0.00020000      -0.05640000
C       -1.21040000      -0.72090000      -0.03280000
F       -2.37460000      -0.07230000      -0.03100000
C       -1.13150000      -2.08960000      -0.00280000
F       -2.22610000      -2.83540000       0.02360000
C        0.14120000      -2.67010000       0.00050000
N        1.24980000      -1.94400000      -0.01350000
N        1.18450000      -0.61760000      -0.03570000
H        0.87040000       1.80540000       0.07480000
H       -0.83750000       1.84720000       0.17580000
H        0.24950000      -3.74900000       0.02100000
