18
Properties=species:S:1:pos:R:3 gdb_115981=T pbc="F F F"
C        0.07700000       1.56040000       0.07910000
C        0.07970000       0.03030000       0.05890000
C        0.58830000      -0.53510000      -1.26950000
O        1.93820000      -0.12650000      -1.50940000
C        2.77890000      -1.24350000      -1.76440000
C        1.90310000      -2.44630000      -1.59330000
C        0.65690000      -2.05320000      -1.32090000
C       -0.47500000      -2.88190000      -1.11280000
N       -1.42260000      -3.52530000      -0.93880000
H        1.08310000       1.94970000      -0.09760000
H       -0.58190000       1.96440000      -0.69740000
H       -0.27330000       1.93740000       1.04400000
H        0.71120000      -0.36180000       0.86500000
H       -0.93330000      -0.35500000       0.22840000
H       -0.05030000      -0.15690000      -2.08510000
H        3.19680000      -1.18790000      -2.78280000
H        3.63010000      -1.24310000      -1.06670000
H        2.24870000      -3.46680000      -1.69120000
