18
Properties=species:S:1:pos:R:3 gdb_39067=T pbc="F F F"
C       -0.08820000       1.46680000       0.17530000
N        1.18950000       0.76990000      -0.01790000
C        2.08980000       0.59990000       1.13260000
C        1.90900000      -0.67590000       1.91550000
C        0.84270000      -1.47010000       1.83820000
C       -0.33040000      -1.09970000       0.99470000
O       -0.62450000      -2.02150000      -0.09600000
C       -0.46060000      -0.98240000      -1.09150000
C       -0.04170000       0.00540000      -0.01050000
H       -0.33420000       1.83320000       1.17270000
H       -0.38360000       2.12790000      -0.63590000
H        3.11860000       0.62380000       0.75020000
H        2.00650000       1.46560000       1.80650000
H        2.73920000      -0.93900000       2.56700000
H        0.78450000      -2.39340000       2.40740000
H       -1.22970000      -0.95040000       1.61000000
H        0.31330000      -1.22400000      -1.82870000
H       -1.40480000      -0.75700000      -1.60390000
