19
Properties=species:S:1:pos:R:3 gdb_2728=T pbc="F F F"
C       -0.02290000       1.38130000       0.02290000
O        0.00090000      -0.02420000       0.00600000
C        0.64870000      -0.54940000      -1.13240000
C        0.61980000      -2.06950000      -1.05230000
C        1.30260000      -2.73320000      -2.25070000
C        1.27570000      -4.25370000      -2.17420000
O        1.92980000      -4.76170000      -3.32750000
H        0.99270000       1.80950000       0.02890000
H       -0.55970000       1.79370000      -0.84690000
H       -0.54030000       1.69080000       0.93440000
H        0.14690000      -0.20360000      -2.05350000
H        1.69090000      -0.18710000      -1.18250000
H        1.10550000      -2.37680000      -0.11800000
H       -0.42590000      -2.39310000      -0.98160000
H        0.81710000      -2.42620000      -3.18530000
H        2.34840000      -2.40970000      -2.32210000
H        1.77730000      -4.58770000      -1.25100000
H        0.23160000      -4.60400000      -2.12060000
H        1.91950000      -5.72200000      -3.28020000
