21
Properties=species:S:1:pos:R:3 gdb_6383=T pbc="F F F"
C        0.07550000       1.39520000      -0.00280000
O        0.02000000      -0.02870000      -0.03740000
C        0.59390000      -0.62530000      -1.11070000
C        0.45350000      -2.12830000      -1.00270000
N        1.14110000       0.06970000      -2.01590000
C        1.76240000      -0.55200000      -3.17570000
C        1.04720000      -0.06040000      -4.44140000
C        3.25030000      -0.17730000      -3.19870000
H        1.11140000       1.74650000      -0.00160000
H       -0.42890000       1.82760000      -0.87180000
H       -0.42980000       1.68800000       0.91910000
H       -0.07700000      -2.38440000      -0.08580000
H       -0.10080000      -2.53050000      -1.85550000
H        1.43460000      -2.61170000      -0.98990000
H        1.68970000      -1.65080000      -3.15020000
H        1.09970000       1.03100000      -4.50480000
H        1.50800000      -0.48520000      -5.33930000
H       -0.00910000      -0.34610000      -4.42870000
H        3.75950000      -0.54590000      -2.30300000
H        3.74620000      -0.60400000      -4.07680000
H        3.36520000       0.91090000      -3.22710000
