22
Properties=species:S:1:pos:R:3 gdb_6499=T pbc="F F F"
C        0.25220000       1.62780000       0.03920000
C        0.04490000       0.10880000      -0.04190000
C        0.73050000      -0.46920000      -1.28770000
C        0.54940000      -0.61730000       1.22190000
C       -0.14220000      -0.24700000       2.52400000
C       -1.64060000      -0.45440000       2.59890000
C        0.64010000      -0.26990000       3.77050000
O        0.31850000       0.97080000       3.13930000
H        1.31780000       1.86800000       0.13250000
H       -0.12240000       2.11830000      -0.86570000
H       -0.25450000       2.06560000       0.90220000
H       -1.03220000      -0.08460000      -0.14010000
H        1.81540000      -0.31600000      -1.24270000
H        0.55030000      -1.54530000      -1.38450000
H        0.36580000       0.01590000      -2.19910000
H        0.43930000      -1.70090000       1.07640000
H        1.62300000      -0.42330000       1.33730000
H       -1.89940000      -1.49880000       2.39280000
H       -2.01430000      -0.19250000       3.59170000
H       -2.16310000       0.17000000       1.86760000
H        0.13880000      -0.45530000       4.72020000
H        1.69330000      -0.54890000       3.74490000
