16
Properties=species:S:1:pos:R:3 gdb_35832=T pbc="F F F"
C       -0.09720000      -1.24970000      -0.06000000
C       -0.03960000      -0.05000000      -0.03100000
C        0.02610000       1.40400000       0.01570000
C       -0.63620000       2.02780000       1.28290000
C        0.20520000       3.28190000       1.61520000
C        1.52370000       3.00130000       0.94850000
C        1.44640000       1.98200000       0.08450000
C        2.50350000       1.51060000      -0.73880000
N        3.35190000       1.11610000      -1.42170000
H       -0.13910000      -2.31030000      -0.09480000
H       -0.45460000       1.79830000      -0.89160000
H       -1.69370000       2.24490000       1.12250000
H       -0.56380000       1.30640000       2.10030000
H       -0.23660000       4.19850000       1.19930000
H        0.30450000       3.45170000       2.69240000
H        2.41840000       3.58740000       1.12180000
