15
Properties=species:S:1:pos:R:3 gdb_132908=T pbc="F F F"
C       -0.03110000       1.50100000       0.00470000
C       -0.00270000      -0.00060000      -0.01930000
N       -0.02230000      -0.61860000      -1.16570000
C        0.00280000      -2.01130000      -1.22790000
N       -0.01270000      -2.71840000      -2.29230000
N        0.04970000      -2.69430000       0.00290000
C        0.07060000      -2.06410000       1.20280000
C        0.04510000      -0.71220000       1.22390000
F        0.06370000      -0.03020000       2.37890000
H        0.85370000       1.89470000       0.51670000
H       -0.06550000       1.88140000      -1.01570000
H       -0.90210000       1.86070000       0.56320000
H       -0.04670000      -2.09440000      -3.09590000
H        0.06750000      -3.70110000      -0.05810000
H        0.10690000      -2.67100000       2.09850000
