17
Properties=species:S:1:pos:R:3 gdb_22656=T pbc="F F F"
O       -0.16590000       1.30750000       0.07400000
N        0.00670000      -0.08510000      -0.03830000
C       -1.11710000      -0.67770000      -0.03400000
C       -2.50410000      -0.06640000       0.01910000
N       -3.44830000      -1.17810000      -0.14200000
C       -2.71290000      -2.34220000      -0.62140000
C       -1.23530000      -2.17870000      -0.13960000
C       -3.30320000      -3.63300000      -0.10440000
O       -4.11630000      -3.68750000       0.78380000
H        0.74080000       1.62980000       0.03390000
H       -2.67060000       0.48100000       0.95290000
H       -2.60310000       0.66940000      -0.79020000
H       -3.90110000      -1.42540000       0.73130000
H       -2.72100000      -2.38450000      -1.72150000
H       -0.49170000      -2.61840000      -0.80650000
H       -1.11130000      -2.63240000       0.85250000
H       -2.90830000      -4.55450000      -0.58450000
