18
Properties=species:S:1:pos:R:3 gdb_75564=T pbc="F F F"
N        0.00120000       1.38450000      -0.03680000
C       -0.03690000      -0.00940000       0.01500000
N       -1.15450000      -0.61170000       0.09950000
C       -1.22270000      -2.06170000       0.00220000
C        0.07300000      -2.74080000      -0.45730000
C        1.25770000      -2.07450000       0.23690000
N        1.22470000      -0.63750000      -0.05940000
C        2.35920000      -0.02610000      -0.55900000
O        3.43640000      -0.57070000      -0.65320000
H        0.66540000       1.81510000       0.59400000
H       -0.93250000       1.75230000       0.09260000
H       -1.51600000      -2.44810000       0.98900000
H       -2.04750000      -2.31990000      -0.67250000
H        0.05100000      -3.81150000      -0.23110000
H        0.19450000      -2.63640000      -1.54150000
H        1.20390000      -2.22110000       1.32280000
H        2.22210000      -2.44560000      -0.10870000
H        2.17550000       1.01090000      -0.87670000
