22
Properties=species:S:1:pos:R:3 gdb_62949=T pbc="F F F"
C       -0.07980000       1.58550000      -0.04770000
C        0.00680000       0.06170000       0.00540000
C       -1.35920000      -0.57410000      -0.26580000
C        1.10650000      -0.61500000      -0.83240000
C        2.46940000      -0.32740000      -0.34850000
N        1.68210000      -1.35430000       0.36730000
C        0.72700000      -0.58590000       1.21180000
C        1.10420000      -0.01810000       2.54430000
C        0.14160000      -1.18780000       2.44360000
H        0.89020000       2.05920000       0.12520000
H       -0.44960000       1.91920000      -1.02390000
H       -0.77450000       1.96240000       0.71220000
H       -1.73240000      -0.28120000      -1.25400000
H       -1.30080000      -1.66590000      -0.23250000
H       -2.09800000      -0.25160000       0.47580000
H        0.92240000      -1.13310000      -1.76940000
H        3.29670000      -0.74780000      -0.91280000
H        2.69460000       0.60570000       0.16150000
H        2.10700000      -0.21760000       2.90840000
H        0.70620000       0.95130000       2.82770000
H       -0.90660000      -1.01350000       2.66430000
H        0.50930000      -2.16760000       2.72940000
