23
Properties=species:S:1:pos:R:3 gdb_95317=T pbc="F F F"
O        0.13810000       1.38680000      -0.29000000
C        0.06880000      -0.00860000      -0.00450000
C        0.83670000      -0.38410000       1.27900000
C        0.01830000      -0.15180000       2.56510000
C       -1.42920000      -0.66540000       2.42150000
C       -1.48200000      -2.13010000       1.91500000
C       -1.45860000      -2.02590000       0.35640000
C       -1.39150000      -0.50880000       0.04850000
C       -2.11020000       0.09600000       1.26980000
H       -0.24290000       1.86630000       0.45210000
H        0.56770000      -0.47590000      -0.86130000
H        1.11480000      -1.44240000       1.21910000
H        1.77450000       0.18000000       1.30260000
H        0.51740000      -0.64180000       3.40920000
H       -0.01070000       0.91890000       2.81070000
H       -1.95530000      -0.54720000       3.37360000
H       -0.65650000      -2.73090000       2.30840000
H       -2.40630000      -2.60920000       2.25100000
H       -0.62100000      -2.57250000      -0.08850000
H       -2.37160000      -2.45240000      -0.06950000
H       -1.87610000      -0.25380000      -0.89790000
H       -3.18320000      -0.12410000       1.22890000
H       -2.01460000       1.18490000       1.35210000
