21
Properties=species:S:1:pos:R:3 gdb_104910=T pbc="F F F"
C       -0.00030000       1.52630000      -0.34760000
C       -0.03000000       0.09140000       0.18920000
C       -1.42210000      -0.54000000       0.12740000
C       -1.88700000      -1.16300000      -1.19710000
C       -1.59570000      -2.05000000      -0.01620000
C       -0.41660000      -2.99870000      -0.01700000
O       -2.69890000      -2.55400000       0.68730000
C       -2.41200000       0.15810000       0.90690000
C       -3.19040000       0.78980000       1.57190000
H        1.00840000       1.94460000      -0.27850000
H       -0.30920000       1.56010000      -1.39780000
H       -0.67770000       2.16920000       0.22080000
H        0.67250000      -0.52150000      -0.38340000
H        0.31760000       0.07870000       1.22900000
H       -2.92620000      -1.02120000      -1.46940000
H       -1.18200000      -1.14300000      -2.02270000
H        0.43490000      -2.61570000      -0.58250000
H       -0.09350000      -3.21060000       1.00680000
H       -0.71250000      -3.94900000      -0.47850000
H       -3.07380000      -3.27380000       0.16750000
H       -3.89420000       1.32350000       2.16060000
