18
Properties=species:S:1:pos:R:3 gdb_22315=T pbc="F F F"
O       -0.06470000       1.36020000      -0.06110000
N        0.05810000      -0.03620000       0.02280000
C       -1.07320000      -0.62590000       0.05820000
C       -2.42840000       0.04590000       0.07400000
O       -3.27300000      -0.52520000       1.06430000
C       -3.42750000      -1.92360000       0.91640000
C       -2.09100000      -2.65070000       1.11640000
O       -2.22210000      -4.04800000       0.90950000
C       -1.07720000      -2.13200000       0.09350000
H        0.85420000       1.64480000      -0.02060000
H       -2.33230000       1.10380000       0.31330000
H       -2.89340000      -0.04610000      -0.92350000
H       -4.15880000      -2.23460000       1.67040000
H       -3.82960000      -2.18140000      -0.07830000
H       -1.72600000      -2.43010000       2.13120000
H       -2.75110000      -4.41130000       1.62690000
H       -1.38810000      -2.51770000      -0.88850000
H       -0.07280000      -2.50990000       0.29460000
