25
Properties=species:S:1:pos:R:3 gdb_110055=T pbc="F F F"
C       -0.15980000       1.75410000       0.34210000
C       -0.19320000       0.23270000       0.15990000
C        0.73630000      -0.51490000       1.11950000
C        0.62760000      -2.06210000       1.13880000
C        0.61180000      -2.73200000      -0.24390000
C        1.87340000      -2.45240000       1.96190000
C        2.98000000      -1.47960000       1.49520000
C        2.25650000      -0.21620000       0.94560000
O        2.64290000       0.10980000      -0.38770000
H        0.83350000       2.14950000       0.11280000
H       -0.87730000       2.24600000      -0.32230000
H       -0.41170000       2.03790000       1.37050000
H       -1.21790000      -0.13290000       0.30820000
H        0.07210000      -0.00330000      -0.87600000
H        0.48660000      -0.18920000       2.14060000
H       -0.28930000      -2.36210000       1.65960000
H        1.53270000      -2.54950000      -0.81120000
H        0.52030000      -3.81820000      -0.13900000
H       -0.22660000      -2.38630000      -0.85540000
H        1.66610000      -2.30070000       3.02730000
H        2.15500000      -3.50280000       1.83820000
H        3.68330000      -1.23790000       2.29660000
H        3.57670000      -1.91100000       0.68450000
H        2.53270000       0.67600000       1.51350000
H        2.46720000      -0.65180000      -0.94900000
