18
Properties=species:S:1:pos:R:3 gdb_57222=T pbc="F F F"
N        0.10680000       1.28030000       0.05290000
H        0.65730000       0.42620000       0.11980000
H        0.76510000       2.04950000      -0.01220000
H       -1.59630000       0.80040000      -0.71420000
C       -0.70850000       1.39830000       1.27360000
C       -1.97490000       0.53430000       1.07700000
O       -2.33430000       0.40170000      -0.20230000
O       -2.58090000       0.02640000       1.98630000
C       -0.00620000       1.00150000       2.55820000
O        0.31970000      -0.36260000       2.59030000
C        1.00850000       1.91980000       3.17150000
C       -0.32760000       1.69230000       3.85240000
H       -1.05200000       2.43770000       1.34610000
H       -0.51410000      -0.82990000       2.73990000
H        1.88020000       1.44830000       3.60960000
H        1.19660000       2.88070000       2.70310000
H       -1.05890000       2.49310000       3.85190000
H       -0.33390000       1.07210000       4.74110000
