19
Properties=species:S:1:pos:R:3 gdb_51664=T pbc="F F F"
O       -0.56850000       1.37160000       0.87360000
C        0.12190000       1.20350000      -0.09940000
C        1.45600000       1.87000000      -0.33580000
C        1.32600000       2.96180000      -1.40330000
C        0.48700000       4.23930000      -1.06440000
C        1.70170000       5.13850000      -1.42780000
C        2.65360000       5.41020000      -0.25380000
O        3.31920000       4.13490000      -0.44000000
C        2.56730000       3.86310000      -1.63880000
H       -0.21900000       0.54190000      -0.93140000
H        1.82030000       2.30290000       0.59830000
H        2.17480000       1.11350000      -0.67880000
H        0.99930000       2.52590000      -2.35470000
H       -0.38740000       4.37880000      -1.70310000
H        0.16320000       4.31320000      -0.02230000
H        1.55860000       5.92100000      -2.17080000
H        3.35180000       6.24220000      -0.41090000
H        2.19960000       5.50320000       0.74040000
H        3.21630000       3.64770000      -2.49270000
