15
Properties=species:S:1:pos:R:3 gdb_57750=T pbc="F F F"
C       -0.68460000       1.45960000      -0.18080000
C        0.21080000       0.22990000       0.04140000
O       -0.45150000      -0.79020000       0.77570000
C        0.73610000      -0.27020000      -1.23310000
C        1.11910000      -0.69870000      -2.29580000
C        1.57050000      -1.22660000      -3.56130000
O        1.06310000      -2.19500000      -4.09270000
C        2.68150000      -0.50750000      -4.15440000
C        3.60370000       0.08340000      -4.65330000
H       -0.12750000       2.26900000      -0.66090000
H       -1.53620000       1.20390000      -0.81880000
H       -1.05850000       1.80450000       0.78630000
H        1.05780000       0.52110000       0.67440000
H       -1.13530000      -1.16630000       0.20960000
H        4.41850000       0.59970000      -5.10000000
