21
Properties=species:S:1:pos:R:3 gdb_101852=T pbc="F F F"
O       -0.20190000       1.12290000       0.58050000
C       -0.47140000      -0.26000000       0.49860000
C       -1.60660000      -0.53530000      -0.48660000
O       -1.30190000       0.05930000      -1.75110000
C       -1.91750000      -2.01960000      -0.65510000
O       -2.29630000      -2.54070000       0.60370000
C       -2.60840000      -3.89930000       0.57210000
C       -3.56560000      -4.38480000       1.60880000
C       -3.99190000      -4.32780000       0.15390000
H       -0.25570000       1.45080000      -0.32630000
H        0.42280000      -0.82900000       0.17740000
H       -0.74340000      -0.61380000       1.49620000
H       -2.50580000      -0.01530000      -0.13980000
H       -0.55250000      -0.41860000      -2.12740000
H       -2.71860000      -2.14760000      -1.39710000
H       -1.02400000      -2.54720000      -1.03820000
H       -1.77050000      -4.54140000       0.29640000
H       -3.38590000      -5.35000000       2.06820000
H       -3.97730000      -3.63290000       2.27200000
H       -4.68660000      -3.54220000      -0.12200000
H       -4.10840000      -5.25450000      -0.39710000
