16
Properties=species:S:1:pos:R:3 gdb_411=T pbc="F F F"
C       -0.04940000       1.54330000       0.11090000
C       -0.02120000       0.02990000       0.02440000
C       -1.29650000      -0.59490000      -0.49030000
O       -1.51580000      -0.14730000      -1.82340000
C        1.27530000      -0.65080000      -0.34020000
C        0.74320000      -0.74590000       1.07010000
H        0.90800000       1.93770000       0.46500000
H       -0.25960000       1.97930000      -0.86980000
H       -0.82780000       1.88420000       0.80470000
H       -1.21310000      -1.69310000      -0.45140000
H       -2.13720000      -0.30550000       0.16190000
H       -2.39760000      -0.42230000      -2.09020000
H        1.23000000      -1.53590000      -0.96550000
H        2.14430000      -0.02660000      -0.51830000
H        1.24630000      -0.18160000       1.84810000
H        0.34560000      -1.69940000       1.40320000
