16
Properties=species:S:1:pos:R:3 gdb_30871=T pbc="F F F"
C       -0.24690000       1.26010000      -0.04250000
O        0.66910000       0.16780000       0.12360000
C        0.88260000      -0.56860000      -0.96700000
C        0.68450000      -1.86830000      -1.27500000
C        0.04940000      -2.94050000      -0.46060000
N        1.21080000      -2.10570000      -2.55970000
C        1.66580000      -0.95590000      -2.92200000
O        2.25450000      -0.61860000      -4.06940000
O        1.52980000       0.04710000      -2.04290000
H        0.14410000       1.98940000      -0.75890000
H       -1.22190000       0.89500000      -0.38490000
H       -0.34760000       1.72610000       0.93850000
H       -0.80910000      -3.37620000      -0.98340000
H        0.75540000      -3.75470000      -0.26340000
H       -0.29110000      -2.54040000       0.49740000
H        2.28500000      -1.42110000      -4.60620000
