17
Properties=species:S:1:pos:R:3 gdb_128857=T pbc="F F F"
C        0.00680000       1.37230000      -0.02240000
O       -0.00230000      -0.03710000       0.03390000
C        0.70030000      -0.54650000       1.13830000
C        0.59870000      -2.06960000       1.05200000
N        1.30800000      -2.71250000       2.14440000
N        2.63310000      -2.76460000       2.22400000
C        2.79780000      -3.39470000       3.38040000
N        1.62650000      -3.70900000       3.97720000
N        0.68630000      -3.26610000       3.17960000
H        1.03070000       1.76840000      -0.10180000
H       -0.55720000       1.66440000      -0.91080000
H       -0.46840000       1.81690000       0.86540000
H        1.75850000      -0.24160000       1.11990000
H        0.26650000      -0.19620000       2.08950000
H       -0.44170000      -2.38840000       1.12020000
H        1.02310000      -2.41960000       0.10890000
H        3.76500000      -3.63260000       3.79220000
