22
Properties=species:S:1:pos:R:3 gdb_105225=T pbc="F F F"
C        0.53780000       1.15720000       0.25050000
C        0.12800000      -0.29050000       0.53820000
O        0.36210000      -0.64140000       1.90180000
C       -1.34730000      -0.55190000       0.27860000
C       -2.32500000       0.29960000       1.08560000
O       -2.76930000       1.45930000       0.38260000
N       -1.68450000      -0.78340000      -1.13610000
C       -1.82170000      -1.89290000      -0.17970000
C       -0.95150000      -3.11090000      -0.37860000
H        1.61880000       1.28720000       0.37860000
H        0.29200000       1.42530000      -0.78150000
H        0.04530000       1.85390000       0.93860000
H        0.70770000      -0.94130000      -0.12940000
H        1.26600000      -0.39570000       2.12240000
H       -3.23780000      -0.26650000       1.29150000
H       -1.87030000       0.55780000       2.05010000
H       -2.00990000       2.03220000       0.24020000
H       -2.57970000      -0.34110000      -1.33340000
H       -2.83600000      -2.13470000       0.13830000
H        0.02440000      -2.84890000      -0.79210000
H       -0.79920000      -3.63710000       0.56940000
H       -1.42900000      -3.80410000      -1.07950000
