17
Properties=species:S:1:pos:R:3 gdb_26154=T pbc="F F F"
C       -0.63010000       2.20070000       0.46010000
C       -0.66850000       0.71800000       0.32320000
N        1.96230000      -1.43310000       0.38500000
H        2.58210000      -1.64200000      -0.39300000
H        2.42760000      -1.78670000       1.21650000
H        1.13080000      -2.00750000       0.25340000
C       -1.79180000       0.00210000       0.15020000
C       -1.85620000      -1.47250000       0.01200000
O       -1.04170000      -2.35070000       0.01240000
O       -3.22540000      -1.74320000      -0.14500000
C       -3.84070000      -0.52310000      -0.09540000
N       -3.10820000       0.50860000       0.06800000
H       -0.16340000       2.47820000       1.41370000
H        0.00430000       2.63430000      -0.32330000
H       -1.62590000       2.64170000       0.40360000
H        0.27690000       0.17430000       0.36630000
H       -4.91740000      -0.54340000      -0.20160000
