17
Properties=species:S:1:pos:R:3 gdb_31280=T pbc="F F F"
C        0.04250000       0.54030000      -0.62500000
O       -0.17080000       0.57790000       0.78770000
C        0.51190000      -0.35350000       1.49000000
C        0.75130000      -1.70260000       1.35450000
O        0.32420000      -2.47350000       0.32370000
C        0.77820000      -3.82120000       0.33850000
N        1.48590000      -2.17040000       2.40580000
C        1.68970000      -1.13160000       3.19110000
N        1.12570000      -0.00480000       2.67720000
H       -0.24640000      -0.42970000      -1.03980000
H       -0.58290000       1.32810000      -1.04840000
H        1.09530000       0.73470000      -0.86470000
H        0.43300000      -4.34740000       1.23440000
H        0.35710000      -4.28740000      -0.55400000
H        1.87220000      -3.87440000       0.30820000
H        2.22070000      -1.14200000       4.12970000
H        1.12280000       0.92150000       3.07030000
