20
Properties=species:S:1:pos:R:3 gdb_6154=T pbc="F F F"
C        0.43830000       1.26530000       0.21010000
C       -0.02660000      -0.16600000      -0.01560000
C       -1.51380000      -0.33810000       0.26430000
C        0.48260000      -0.85310000      -1.31210000
C        1.22340000      -1.81360000      -0.36520000
C        2.74290000      -1.81710000      -0.38690000
O        3.25170000      -2.38040000       0.80490000
O        0.74930000      -1.09990000       0.80530000
H        1.51180000       1.36180000       0.02640000
H       -0.09090000       1.95280000      -0.45880000
H        0.23950000       1.57210000       1.24220000
H       -2.11010000       0.29690000      -0.40010000
H       -1.81920000      -1.37760000       0.11550000
H       -1.74030000      -0.06090000       1.29880000
H       -0.29060000      -1.30200000      -1.93710000
H        1.13360000      -0.23280000      -1.93330000
H        0.85260000      -2.84650000      -0.35940000
H        3.11230000      -2.42610000      -1.22030000
H        3.10870000      -0.78690000      -0.53480000
H        2.79700000      -1.92120000       1.52250000
