15
Properties=species:S:1:pos:R:3 gdb_19514=T pbc="F F F"
O        0.30750000       0.17730000      -0.55030000
C        0.26110000       1.34170000      -0.23990000
N        1.26120000       2.00600000       0.45320000
C        2.67060000       1.96410000       0.14960000
C        3.02030000       1.66930000      -1.29990000
O        2.15450000       2.49750000      -2.07390000
C        1.87830000       3.68090000      -1.33860000
C        1.90280000       3.26110000       0.12200000
H       -0.62880000       1.98120000      -0.39670000
H        3.35390000       1.68960000       0.94630000
H        4.07930000       1.91520000      -1.47490000
H        2.83070000       0.63570000      -1.59700000
H        2.64680000       4.45550000      -1.49660000
H        0.91830000       4.07060000      -1.68940000
H        1.97070000       4.01030000       0.90450000
