15
Properties=species:S:1:pos:R:3 gdb_51509=T pbc="F F F"
O        0.12900000       0.03550000      -0.48930000
C        0.21810000       1.22410000      -0.51160000
O        0.78720000       1.92240000       0.50030000
C        0.92120000       3.33330000       0.32080000
C        1.18680000       4.03610000       1.61680000
C        2.27430000       4.80790000       1.55720000
C        2.97100000       4.75440000       0.22260000
C        2.18130000       3.67330000      -0.52090000
O        2.47180000       3.12540000      -1.54770000
H       -0.15880000       1.87100000      -1.32440000
H        0.02820000       3.72200000      -0.19270000
H        0.53830000       3.91700000       2.47550000
H        2.63630000       5.42220000       2.37330000
H        2.91230000       5.70010000      -0.33300000
H        4.03460000       4.49550000       0.27780000
