15
Properties=species:S:1:pos:R:3 gdb_84180=T pbc="F F F"
O        0.07690000       1.38430000      -0.13740000
C        0.05320000      -0.02730000      -0.04920000
C        0.69100000      -0.54170000       1.23590000
C       -0.16030000      -1.27090000       1.97400000
C        0.13380000      -1.90160000       3.26480000
O       -0.66050000      -2.57570000       3.88110000
C       -1.49820000      -1.33360000       1.29610000
O       -2.08800000      -0.01830000       1.13290000
C       -1.36980000      -0.59690000       0.03560000
H       -0.54770000       1.69810000       0.53110000
H        0.58340000      -0.39960000      -0.93320000
H        1.70100000      -0.26630000       1.52090000
H        1.16370000      -1.72470000       3.64470000
H       -2.19650000      -2.14120000       1.47950000
H       -1.94990000      -0.80110000      -0.85870000
