18
Properties=species:S:1:pos:R:3 gdb_125197=T pbc="F F F"
C       -0.01960000       1.53800000       0.05410000
C       -0.05240000       0.04300000      -0.02660000
C        0.10490000      -0.77900000      -1.12790000
N        0.46970000      -0.74920000      -2.47890000
C        0.21530000      -2.12250000      -2.98750000
C        0.32740000      -3.02000000      -1.72680000
N       -0.03090000      -2.05600000      -0.70860000
N       -0.21360000      -2.17070000       0.62670000
C       -0.25320000      -0.89830000       1.02260000
H        0.82150000       1.95850000      -0.50910000
H       -0.93430000       2.00470000      -0.33390000
H        0.08940000       1.86330000       1.09280000
H        0.02520000      -0.02470000      -3.02720000
H       -0.79320000      -2.21050000      -3.41350000
H        0.94200000      -2.39340000      -3.75640000
H       -0.35640000      -3.87110000      -1.74970000
H        1.34890000      -3.39080000      -1.57520000
H       -0.42720000      -0.67260000       2.06650000
