15
Properties=species:S:1:pos:R:3 gdb_43783=T pbc="F F F"
O        0.04650000       0.05560000      -0.03670000
C        0.02170000       1.25060000       0.00670000
C       -1.19580000       2.20410000       0.02930000
C       -0.38080000       3.51710000       0.02640000
C        0.70890000       3.26520000      -1.06150000
C        1.17960000       2.25540000       0.02340000
N        0.64250000       3.18460000       1.10340000
C       -1.09630000       4.77070000       0.11990000
N       -1.65360000       5.78130000       0.18020000
H       -1.83690000       2.07690000      -0.84550000
H       -1.78560000       2.08430000       0.93960000
H        0.39590000       2.90520000      -2.04610000
H        1.39360000       4.11020000      -1.15630000
H        2.19210000       1.87120000       0.10970000
H        1.28600000       3.97590000       1.16510000
