12
Properties=species:S:1:pos:R:3 gdb_27474=T pbc="F F F"
O       -0.16670000       1.22020000      -0.32170000
C        0.08520000      -0.04620000       0.01880000
N        1.26940000      -0.52370000      -0.10610000
C        1.50770000      -1.85920000       0.21520000
O        2.33800000      -2.23530000       0.99500000
N        0.76680000      -2.79260000      -0.56570000
C       -0.50220000      -2.82470000      -0.42730000
C       -1.29990000      -1.88260000       0.37920000
N       -1.05330000      -0.63730000       0.56430000
H        0.66250000       1.58810000      -0.66000000
H       -1.06140000      -3.60240000      -0.95430000
H       -2.22570000      -2.26620000       0.81380000
