18
Properties=species:S:1:pos:R:3 gdb_28439=T pbc="F F F"
C       -0.06640000       1.52240000       0.00070000
C        0.00060000       0.01410000      -0.00850000
C        0.01300000      -0.70190000      -1.20240000
C        0.07650000      -2.09720000      -1.18830000
C        0.13010000      -2.78690000       0.01160000
O        0.18330000      -4.15700000       0.10160000
C        0.12280000      -2.08830000       1.23420000
N        0.23570000      -2.80320000       2.42810000
C        0.05470000      -0.69660000       1.19610000
H        0.82490000       1.96310000       0.46290000
H       -0.14410000       1.92130000      -1.01430000
H       -0.93170000       1.88480000       0.56800000
H       -0.02850000      -0.17760000      -2.15130000
H        0.08010000      -2.65320000      -2.12300000
H        0.14920000      -4.52980000      -0.78440000
H       -0.04900000      -3.76890000       2.34680000
H       -0.18230000      -2.34990000       3.22740000
H        0.04790000      -0.15350000       2.13820000
