17
Properties=species:S:1:pos:R:3 gdb_51599=T pbc="F F F"
N       -1.45510000       0.31960000       0.07830000
C       -0.31200000      -0.11680000      -0.26150000
O        0.03250000      -1.39060000      -0.43530000
C       -0.74550000      -2.53000000      -0.09580000
C       -1.78700000      -2.59210000       0.99320000
C       -2.18840000      -2.78720000      -0.45720000
N       -3.01150000      -1.82740000      -1.11660000
C       -3.83420000      -2.17080000      -2.14010000
O       -3.97520000      -3.29100000      -2.58900000
H       -1.43850000       1.33440000       0.14090000
H        0.56570000       0.50160000      -0.47190000
H       -0.07590000      -3.37630000      -0.19350000
H       -1.76920000      -3.44440000       1.66430000
H       -2.08690000      -1.65690000       1.44570000
H       -2.41310000      -3.78660000      -0.81070000
H       -2.92040000      -0.86390000      -0.81700000
H       -4.38490000      -1.29130000      -2.52770000
