20
Properties=species:S:1:pos:R:3 gdb_76845=T pbc="F F F"
C       -1.06340000       1.06170000       0.54120000
C       -0.25130000      -0.19010000       0.22630000
C        0.31170000      -0.37650000      -1.21560000
C        0.61770000       0.92450000      -2.00040000
C        1.94700000       1.03600000      -1.22830000
O        2.76620000       1.90110000      -1.10030000
C        1.74410000      -0.35360000      -0.57010000
N        1.13470000      -0.28650000       0.76270000
C        1.66450000       0.56120000       1.80900000
H       -0.54190000       1.98550000       0.27580000
H       -2.01430000       1.03830000      -0.00210000
H       -1.29740000       1.10850000       1.60970000
H       -0.83620000      -1.06330000       0.54790000
H       -0.06440000      -1.22390000      -1.78450000
H        0.82680000       0.70960000      -3.05530000
H       -0.07620000       1.76690000      -1.95600000
H        2.53280000      -1.10260000      -0.69750000
H        1.67350000       1.63840000       1.57770000
H        1.08690000       0.41020000       2.72730000
H        2.69780000       0.26200000       2.01500000
