18
Properties=species:S:1:pos:R:3 gdb_61410=T pbc="F F F"
C        0.16120000       1.35850000       0.16170000
C        0.42530000      -0.06010000      -0.29660000
O        1.51100000      -0.58170000      -0.12450000
C       -0.73470000      -0.77630000      -0.96270000
C       -0.67250000      -2.32010000      -0.99080000
O       -1.97340000      -2.82620000      -1.11750000
C        0.16760000      -2.88210000      -2.15970000
N        1.48240000      -2.60000000      -2.14390000
O       -0.38970000      -3.55120000      -3.01970000
H        1.09430000       1.83680000       0.46070000
H       -0.32810000       1.93850000      -0.62780000
H       -0.52760000       1.34220000       1.01470000
H       -1.66320000      -0.50100000      -0.45010000
H       -0.83780000      -0.37350000      -1.98050000
H       -0.22010000      -2.66430000      -0.04850000
H       -1.94720000      -3.33780000      -1.94800000
H        1.86510000      -2.02060000      -1.40620000
H        2.06340000      -2.94990000      -2.88770000
