14
Properties=species:S:1:pos:R:3 gdb_123526=T pbc="F F F"
C        0.05570000       1.38370000       0.00960000
N        1.31680000       1.82450000      -0.00020000
N        2.04940000       0.68940000      -0.01400000
C        3.41120000       0.63150000      -0.02770000
N        4.06520000      -0.48760000      -0.04050000
C        3.33790000      -1.65000000      -0.04000000
C        1.97160000      -1.69180000      -0.02680000
C        1.26500000      -0.46660000      -0.01290000
C       -0.04880000      -0.01670000       0.00260000
H       -0.74800000       2.10630000       0.02160000
H        3.91510000       1.59230000      -0.02710000
H        3.92350000      -2.56300000      -0.05100000
H        1.43240000      -2.63100000      -0.02690000
H       -0.94210000      -0.61840000       0.00800000
