20
Properties=species:S:1:pos:R:3 gdb_78910=T pbc="F F F"
C       -0.14040000       1.58490000      -0.04180000
C       -0.00650000       0.06170000      -0.00960000
C        0.92670000      -0.50370000      -1.06610000
C        2.31200000      -0.55040000      -0.52110000
C        2.29450000      -0.28990000       0.98850000
C        2.49280000      -1.72790000       1.55670000
C        1.15050000      -1.96800000       0.83020000
C        0.74810000      -0.50650000       1.18520000
N        1.50300000      -1.80220000      -0.62290000
H        0.83690000       2.06830000       0.06070000
H       -0.58240000       1.92360000      -0.98470000
H       -0.78070000       1.94230000       0.77120000
H       -1.00010000      -0.39940000      -0.08930000
H        0.72030000      -0.41070000      -2.12740000
H        3.20970000      -0.47350000      -1.12390000
H        2.83070000       0.57650000       1.37360000
H        3.36090000      -2.30220000       1.22320000
H        2.39730000      -1.77190000       2.64470000
H        0.51320000      -2.83270000       1.01210000
H        0.36280000      -0.32900000       2.18770000
