21
Properties=species:S:1:pos:R:3 gdb_86268=T pbc="F F F"
C       -0.87890000       1.15360000      -0.04850000
C        0.08000000      -0.02090000      -0.16040000
C        1.46350000       0.17800000      -0.83430000
C        2.06320000      -0.81600000       0.18680000
O        3.35880000      -0.63130000       0.68370000
C        0.81390000      -0.57000000       1.12760000
C        1.10440000       0.49580000       2.19500000
C        0.22630000      -1.75280000       1.72930000
C       -0.26400000      -2.74210000       2.20840000
H       -0.40410000       2.02880000       0.40610000
H       -1.23620000       1.45150000      -1.04030000
H       -1.75540000       0.89400000       0.55500000
H       -0.43380000      -0.86400000      -0.63170000
H        1.56200000      -0.06220000      -1.89500000
H        1.84590000       1.19320000      -0.67400000
H        2.03250000      -1.83990000      -0.19260000
H        3.45910000       0.29230000       0.93590000
H        1.51520000       1.41170000       1.75650000
H        0.19270000       0.76710000       2.73320000
H        1.82550000       0.10930000       2.92020000
H       -0.69170000      -3.61600000       2.63340000
