18
Properties=species:S:1:pos:R:3 gdb_133800=T pbc="F F F"
C        0.10050000       1.49380000      -0.12760000
C        0.53030000       0.04000000      -0.04280000
O        0.23140000      -0.57700000      -1.29280000
C        0.43650000      -1.96730000      -1.36290000
C       -0.56910000      -2.55450000      -2.34770000
C        1.87340000      -2.27210000      -1.80870000
F        2.77950000      -1.74600000      -0.96660000
F        2.08450000      -3.59970000      -1.84110000
F        2.13090000      -1.78770000      -3.02760000
H        0.64410000       2.00840000      -0.92480000
H       -0.97000000       1.56870000      -0.33820000
H        0.30720000       2.00400000       0.81790000
H        1.60120000      -0.03610000       0.17920000
H       -0.01400000      -0.47970000       0.76210000
H        0.31980000      -2.43480000      -0.37340000
H       -1.58140000      -2.37900000      -1.97850000
H       -0.46250000      -2.06780000      -3.32010000
H       -0.41380000      -3.62880000      -2.46960000
