19
Properties=species:S:1:pos:R:3 gdb_63420=T pbc="F F F"
C        0.10450000       1.58500000      -0.03480000
C       -0.07220000       0.05990000       0.04920000
C       -1.56930000      -0.30090000       0.14530000
N        0.59490000      -0.57910000      -1.11630000
C        1.36520000      -1.75090000      -0.67920000
C        1.49270000      -1.53200000       0.81630000
C        0.70170000      -0.53980000       1.20200000
C        0.70520000      -3.04270000      -0.97660000
N        0.17070000      -4.03570000      -1.23340000
H        1.16430000       1.84210000      -0.10090000
H       -0.39730000       1.97750000      -0.92530000
H       -0.32740000       2.08070000       0.84140000
H       -2.11180000       0.08640000      -0.72490000
H       -1.70890000      -1.38470000       0.18820000
H       -2.02440000       0.13930000       1.03860000
H       -0.05270000      -0.79910000      -1.86240000
H        2.34700000      -1.77770000      -1.17380000
H        2.13420000      -2.14580000       1.43410000
H        0.58690000      -0.17760000       2.21680000
