19
Properties=species:S:1:pos:R:3 gdb_78488=T pbc="F F F"
O       -0.10560000       1.38110000      -0.03100000
C       -0.02190000      -0.01860000       0.00430000
C       -0.48620000      -0.65340000       1.29510000
C       -1.37710000      -0.65480000       0.04180000
C       -1.31460000      -2.19250000      -0.01870000
C       -0.45280000      -2.88260000      -1.07970000
O        0.89510000      -2.79530000      -0.61080000
C        0.87570000      -2.88630000       0.81540000
C       -0.41210000      -2.19170000       1.26440000
H        0.65470000       1.73230000       0.44410000
H        0.78980000      -0.44700000      -0.57790000
H       -0.58320000      -0.04780000       2.18850000
H       -2.25300000      -0.05260000      -0.16560000
H       -2.29170000      -2.66070000       0.10690000
H       -0.75070000      -3.93830000      -1.18800000
H       -0.48680000      -2.40850000      -2.06460000
H        0.87210000      -3.94280000       1.13040000
H        1.79240000      -2.41750000       1.18470000
H       -0.86250000      -2.65600000       2.14300000
