19
Properties=species:S:1:pos:R:3 gdb_127312=T pbc="F F F"
C       -0.31770000       1.42270000      -0.02470000
N       -0.02240000       0.00720000      -0.00960000
C        0.43700000      -0.76070000      -1.02760000
C        0.49220000      -2.05500000      -0.55690000
C        0.03530000      -1.97330000       0.77950000
C       -0.08100000      -3.06980000       1.79350000
C        1.25770000      -3.39140000       2.46130000
O        1.04130000      -4.46320000       3.36640000
N       -0.27630000      -0.71550000       1.09970000
H        0.13810000       1.87230000      -0.90880000
H       -1.39800000       1.59790000      -0.04870000
H        0.09360000       1.89080000       0.87210000
H        0.67880000      -0.33320000      -1.98830000
H        0.81580000      -2.93120000      -1.09580000
H       -0.79630000      -2.77690000       2.56700000
H       -0.45840000      -3.98500000       1.32430000
H        1.99990000      -3.65930000       1.69210000
H        1.62960000      -2.49330000       2.97780000
H        1.86910000      -4.64400000       3.82070000
