15
Properties=species:S:1:pos:R:3 gdb_106574=T pbc="F F F"
O        0.04090000       1.46580000       0.03890000
C        0.05170000       0.04880000       0.03830000
C       -1.33440000      -0.52540000      -0.04760000
O       -2.14350000      -0.37120000       1.16610000
C       -3.06900000      -1.33440000       0.59100000
C       -3.46890000      -0.68710000      -0.71520000
C       -2.31270000      -0.14370000      -1.13840000
C       -1.74390000      -2.06850000       0.09630000
O       -1.26580000      -3.14500000       0.02130000
H       -0.50660000       1.74580000       0.78100000
H        0.62380000      -0.26110000      -0.84220000
H        0.55700000      -0.35920000       0.92530000
H       -3.79640000      -1.74870000       1.28370000
H       -4.43000000      -0.75290000      -1.20290000
H       -2.07190000       0.36560000      -2.05940000
