18
Properties=species:S:1:pos:R:3 gdb_35527=T pbc="F F F"
N       -0.15580000      -1.16120000      -0.21790000
C       -0.08580000      -0.01380000      -0.10010000
C        0.00510000       1.44870000       0.01720000
O       -0.58250000       1.89310000       1.25020000
C        0.43270000       2.67650000       1.91770000
C        1.49470000       1.71250000       2.47550000
C        2.23140000       1.25580000       1.17270000
C        1.45300000       2.00260000       0.06400000
C        1.15430000       3.35480000       0.74690000
H       -0.55330000       1.88050000      -0.82500000
H       -0.07240000       3.30940000       2.64680000
H        2.16750000       2.22050000       3.17280000
H        1.01840000       0.88520000       3.00500000
H        3.27770000       1.57260000       1.17030000
H        2.21500000       0.17300000       1.03340000
H        1.93520000       2.02590000      -0.91290000
H        0.50320000       4.01570000       0.16960000
H        2.06090000       3.88980000       1.03960000
