19
Properties=species:S:1:pos:R:3 gdb_105188=T pbc="F F F"
C       -0.12080000       1.57210000       0.07050000
C       -0.02800000       0.06810000       0.17160000
N        1.26710000      -0.56650000      -0.08420000
C        0.66610000      -0.67410000       1.27300000
C        1.41650000       0.05320000       2.36720000
O        2.51970000      -0.70410000       2.87000000
C        0.07770000      -2.04330000       1.57390000
N        0.32800000      -2.53120000       2.82200000
O       -0.57450000      -2.64790000       0.73760000
H        0.80920000       2.06270000       0.36390000
H       -0.33020000       1.85750000      -0.96580000
H       -0.93520000       1.95740000       0.69300000
H       -0.89090000      -0.47280000      -0.20990000
H        1.10080000      -1.45090000      -0.56340000
H        1.76010000       1.02430000       1.99760000
H        0.76310000       0.22840000       3.22760000
H        3.09120000      -0.89310000       2.11600000
H        1.14510000      -2.18830000       3.31070000
H        0.04550000      -3.48630000       2.98180000
