21
Properties=species:S:1:pos:R:3 gdb_59523=T pbc="F F F"
C        0.10980000       1.49340000      -0.05570000
C        0.03290000      -0.02690000       0.07900000
O        0.68010000      -0.47620000       1.27020000
C       -1.39760000      -0.55530000       0.02260000
C       -2.20760000      -0.45470000      -1.32360000
C       -2.33980000      -1.99020000      -1.30740000
C       -3.41760000      -2.83740000      -1.89930000
O       -0.99500000      -2.49840000      -1.31250000
C       -1.55940000      -2.08280000      -0.05990000
H        1.14960000       1.82630000       0.00460000
H       -0.30880000       1.83360000      -1.00810000
H       -0.45380000       1.98460000       0.74870000
H        0.59680000      -0.49690000      -0.73370000
H        0.26560000      -0.02510000       2.01430000
H       -1.98150000      -0.14100000       0.85450000
H       -3.15700000       0.07360000      -1.20810000
H       -1.67230000      -0.05580000      -2.18970000
H       -3.37990000      -2.80610000      -2.99440000
H       -3.30080000      -3.87800000      -1.58510000
H       -4.40610000      -2.48410000      -1.58810000
H       -1.57140000      -2.81360000       0.74070000
