20
Properties=species:S:1:pos:R:3 gdb_116643=T pbc="F F F"
C        0.12560000       1.35190000       0.17640000
O       -0.07940000       0.07460000      -0.41680000
C       -1.17730000      -0.58950000      -0.00390000
N       -1.42080000      -1.73720000      -0.45760000
C       -2.60480000      -2.48100000      -0.04140000
C       -3.41980000      -1.92170000       1.12940000
C       -3.49670000      -2.65840000      -1.29420000
C       -2.08020000      -3.88560000       0.29910000
O       -2.49800000      -4.58070000       1.18710000
H        1.02480000       1.76260000      -0.28390000
H       -0.71700000       2.02640000      -0.01910000
H        0.28150000       1.27170000       1.25890000
H       -1.78720000      -0.03760000       0.72220000
H       -3.92030000      -0.98710000       0.85780000
H       -4.18020000      -2.64880000       1.42020000
H       -2.78960000      -1.74370000       2.00600000
H       -2.92720000      -3.10720000      -2.11250000
H       -4.36050000      -3.29060000      -1.06920000
H       -3.85180000      -1.67890000      -1.62870000
H       -1.26690000      -4.21740000      -0.38180000
