20
Properties=species:S:1:pos:R:3 gdb_56191=T pbc="F F F"
C       -0.22080000       1.23520000      -0.54200000
C       -0.21010000      -0.24900000      -0.23100000
O        0.56090000      -1.01740000      -0.76000000
C       -1.21180000      -0.73160000       0.82700000
N       -1.31610000      -2.16570000       0.99360000
C       -2.14580000      -2.85830000       0.03520000
C       -1.63120000      -3.32680000      -1.35900000
O       -2.13250000      -4.65930000      -1.11820000
C       -2.36960000      -4.36580000       0.27150000
H        0.65030000       1.49850000      -1.14300000
H       -1.13120000       1.48490000      -1.10020000
H       -0.23870000       1.83070000       0.37690000
H       -0.90210000      -0.26560000       1.77620000
H       -2.20170000      -0.31110000       0.60880000
H       -0.38260000      -2.56690000       0.99550000
H       -3.09420000      -2.31810000      -0.04750000
H       -2.07880000      -2.87490000      -2.25190000
H       -0.53810000      -3.29970000      -1.44710000
H       -1.60810000      -4.81390000       0.92760000
H       -3.36160000      -4.68940000       0.60580000
