21
Properties=species:S:1:pos:R:3 gdb_57803=T pbc="F F F"
C       -0.32710000       1.36250000       0.22740000
C        0.09440000      -0.09710000      -0.03530000
C        0.79860000      -0.24060000      -1.39900000
C        0.93380000      -0.60570000       1.05050000
C        1.63560000      -1.00370000       1.94510000
C        2.47080000      -1.52300000       3.02440000
C        2.11890000      -2.95020000       3.40970000
C        2.34190000      -3.45410000       4.76910000
O        1.02900000      -3.12200000       4.31120000
H        0.54970000       2.01690000       0.25740000
H       -0.99140000       1.71500000      -0.56830000
H       -0.85100000       1.45430000       1.18230000
H       -0.81940000      -0.70730000      -0.06510000
H        1.71340000       0.35970000      -1.42510000
H        1.07120000      -1.28130000      -1.59360000
H        0.14070000       0.10140000      -2.20450000
H        3.52790000      -1.49310000       2.72540000
H        2.37790000      -0.89180000       3.91680000
H        2.13220000      -3.66320000       2.58470000
H        2.52990000      -4.51420000       4.93270000
H        2.75340000      -2.78860000       5.52760000
