18
Properties=species:S:1:pos:R:3 gdb_23556=T pbc="F F F"
O       -0.11940000       1.31720000       0.09590000
N        0.01380000      -0.08510000      -0.00490000
C       -1.12030000      -0.64870000      -0.05500000
C       -2.55250000      -0.23400000       0.02730000
C       -3.34430000      -0.89120000      -1.09070000
C       -2.94220000      -1.73280000       0.07700000
C       -1.46810000      -2.10860000      -0.04210000
C       -0.82490000      -3.24390000      -0.79120000
C       -0.72810000      -3.17640000       0.71350000
H        0.79930000       1.60170000       0.14010000
H       -2.93970000       0.60460000       0.58900000
H       -4.38800000      -0.59370000      -1.12580000
H       -2.88830000      -1.04880000      -2.06390000
H       -3.65190000      -2.20500000       0.74410000
H       -1.47570000      -3.99330000      -1.22960000
H        0.06420000      -3.01620000      -1.36900000
H        0.22170000      -2.89870000       1.15700000
H       -1.31600000      -3.87920000       1.29510000
