17
Properties=species:S:1:pos:R:3 gdb_5516=T pbc="F F F"
C       -0.12550000       1.54530000       0.07710000
C       -0.01990000       0.05010000       0.01750000
C        0.06470000      -0.73490000      -1.11650000
C        0.10710000      -0.39910000      -2.56840000
O       -0.54230000      -1.45160000      -3.28520000
N        0.18570000      -2.04410000      -0.71780000
C        0.15290000      -2.12020000       0.64860000
C        0.03980000      -0.83870000       1.13340000
H        0.84280000       2.02420000       0.27150000
H       -0.50800000       1.96310000      -0.85990000
H       -0.80340000       1.86070000       0.87740000
H       -0.38560000       0.57000000      -2.73620000
H        1.14730000      -0.29540000      -2.92230000
H       -0.35330000      -1.33300000      -4.22080000
H        0.14580000      -2.81270000      -1.36490000
H        0.19720000      -3.07060000       1.15590000
H       -0.00100000      -0.55630000       2.17510000
