17
Properties=species:S:1:pos:R:3 gdb_83189=T pbc="F F F"
O        0.11970000       1.45070000      -0.01490000
C        0.01300000       0.06720000      -0.01260000
C       -1.30980000      -0.66920000       0.05500000
C       -2.62850000       0.07090000      -0.03080000
N       -2.55570000       1.14520000      -1.02710000
C       -1.99830000       0.94760000      -2.29570000
O       -2.30910000       1.63520000      -3.24930000
N       -1.04880000      -0.04210000      -2.35360000
C       -0.49300000      -0.71940000      -1.21720000
H       -0.73410000       1.82050000      -0.28170000
H        0.83930000      -0.37500000       0.53660000
H       -1.35450000      -1.56760000       0.66280000
H       -3.42500000      -0.64910000      -0.27300000
H       -2.88230000       0.52420000       0.93420000
H       -3.37340000       1.73560000      -1.09480000
H       -0.49400000       0.00030000      -3.19480000
H        0.00520000      -1.64440000      -1.48820000
