21
Properties=species:S:1:pos:R:3 gdb_84068=T pbc="F F F"
C       -0.03740000       1.59100000      -0.16860000
C        0.01130000       0.06370000       0.02160000
C        0.68690000      -0.60720000      -1.15290000
C        1.83140000      -1.23560000      -0.85050000
C        2.79280000      -1.95020000      -1.74280000
C        2.07430000      -1.10570000       0.60970000
O        3.06460000      -1.47000000       1.20500000
C        0.83950000      -0.44030000       1.23930000
C        1.20460000       0.54760000       2.34750000
H        0.96710000       2.01320000      -0.26950000
H       -0.59560000       1.84330000      -1.07620000
H       -0.53190000       2.08070000       0.67520000
H       -1.02700000      -0.28560000       0.09890000
H        0.27220000      -0.53100000      -2.15480000
H        3.79190000      -1.50920000      -1.65870000
H        2.89560000      -2.99870000      -1.44160000
H        2.47960000      -1.91620000      -2.78930000
H        0.28240000      -1.26850000       1.69950000
H        1.74000000       1.41830000       1.95840000
H        0.31740000       0.90340000       2.87950000
H        1.86370000       0.05000000       3.06380000
