17
Properties=species:S:1:pos:R:3 gdb_36143=T pbc="F F F"
C       -0.05040000      -1.17290000      -0.36070000
C       -0.03130000       0.00260000      -0.11420000
C        0.01350000       1.42900000       0.19690000
C        1.41920000       1.99270000       0.17810000
C        2.50550000       1.43370000       1.07960000
O        3.55580000       2.39310000       1.06380000
C        3.03540000       3.67290000       0.72300000
C        1.76390000       3.39930000      -0.04790000
O        1.94130000       2.42400000      -1.08400000
H       -0.07310000      -2.21020000      -0.58660000
H       -0.59240000       1.98880000      -0.52410000
H       -0.42790000       1.60110000       1.18760000
H        2.10080000       1.28730000       2.09480000
H        2.91070000       0.48160000       0.72520000
H        2.80090000       4.27420000       1.61730000
H        3.79730000       4.19900000       0.13880000
H        1.03330000       4.18220000      -0.23420000
