20
Properties=species:S:1:pos:R:3 gdb_74883=T pbc="F F F"
C        0.08910000       1.52440000       0.15560000
C       -0.05220000       0.03570000      -0.01060000
C       -1.23500000      -0.57130000       0.15370000
C       -1.52250000      -2.02070000       0.05440000
N       -0.77220000      -2.85210000      -0.90220000
C       -0.55310000      -3.08710000       0.53640000
C        0.75740000      -2.73930000       1.12970000
C        1.54390000      -1.72400000       0.76190000
C        1.22830000      -0.72670000      -0.33560000
H        0.81110000       1.76530000       0.94690000
H        0.47310000       1.98760000      -0.76300000
H       -0.86280000       2.00090000       0.40560000
H       -2.09090000       0.04110000       0.42980000
H       -2.57230000      -2.27120000       0.19150000
H       -1.37760000      -3.57490000      -1.28010000
H       -1.02100000      -3.97250000       0.96090000
H        1.06330000      -3.35880000       1.96930000
H        2.46630000      -1.56620000       1.31520000
H        1.12510000      -1.23910000      -1.29510000
H        2.05590000      -0.01820000      -0.43210000
