17
Properties=species:S:1:pos:R:3 gdb_75404=T pbc="F F F"
N        0.08300000       1.16340000       0.78000000
C       -0.01170000      -0.03610000       0.12230000
N       -1.14210000      -0.62630000       0.02660000
C       -1.37050000      -1.88170000      -0.66540000
C       -0.34710000      -2.98730000      -0.48770000
C        0.91840000      -2.84540000      -0.86750000
C        1.40950000      -1.55050000      -1.47920000
C        1.35330000      -0.43900000      -0.45310000
O        2.34780000       0.14520000      -0.08050000
H        1.01090000       1.44320000       1.05540000
H       -0.69020000       1.40910000       1.37590000
H       -2.34910000      -2.24460000      -0.33700000
H       -1.48410000      -1.68460000      -1.74710000
H       -0.68820000      -3.92050000      -0.04870000
H        1.64720000      -3.63580000      -0.72050000
H        2.43860000      -1.62160000      -1.83360000
H        0.76680000      -1.27330000      -2.32790000
