19
Properties=species:S:1:pos:R:3 gdb_66849=T pbc="F F F"
C       -0.00150000       1.54060000      -0.00640000
C        0.03700000       0.03610000      -0.03560000
C        0.63770000      -0.76010000      -1.22560000
C        0.91310000      -2.09740000      -0.60580000
C        1.22850000      -1.94960000       0.87780000
C        0.32530000      -0.78840000       1.28270000
O       -1.05120000      -1.26520000       1.32920000
C       -1.20800000      -0.87570000      -0.04730000
C       -0.49850000      -1.77990000      -1.07890000
H        1.00550000       1.96080000       0.10180000
H       -0.43030000       1.94430000      -0.93020000
H       -0.60790000       1.90130000       0.83120000
H        1.10590000      -0.35600000      -2.11380000
H        1.43710000      -2.84310000      -1.19460000
H        0.99680000      -2.83820000       1.47230000
H        2.28870000      -1.70280000       1.01680000
H        0.60150000      -0.26260000       2.20030000
H       -2.21710000      -0.54120000      -0.29890000
H       -0.97900000      -2.38270000      -1.83990000
