12
Properties=species:S:1:pos:R:3 gdb_21453=T pbc="F F F"
N        0.20210000       1.34370000       0.00560000
C        0.03960000       0.08860000       0.00210000
N       -1.20820000      -0.52260000       0.01210000
C       -2.45260000       0.03990000       0.02700000
N       -3.56380000      -0.65240000       0.03540000
C       -4.49140000       0.35280000       0.04870000
N       -4.02100000       1.56880000       0.04920000
O       -2.61730000       1.35830000       0.03400000
H        1.19370000       1.57210000      -0.00340000
H        0.83060000      -0.66960000      -0.00900000
H       -1.23600000      -1.53010000       0.00830000
H       -5.55700000       0.17290000       0.05880000
