12
Properties=species:S:1:pos:R:3 gdb_133434=T pbc="F F F"
F        0.03460000       0.07610000      -0.18710000
C       -0.06100000       1.37870000      -0.02520000
N       -1.18450000       1.84910000       0.34750000
O       -1.21030000       3.26130000       0.50060000
C       -0.12470000       4.05910000       0.26930000
N       -0.18050000       5.31280000       0.41460000
C        1.16420000       3.42990000      -0.16750000
N        2.24320000       4.04160000      -0.41600000
N        1.09090000       2.04760000      -0.28860000
H       -1.10890000       5.61390000       0.71360000
H        2.09340000       5.04140000      -0.26980000
H        1.91730000       1.54410000      -0.57920000
