16
Properties=species:S:1:pos:R:3 gdb_130120=T pbc="F F F"
N        0.07230000       1.35190000      -0.04370000
C       -0.03170000       0.00110000      -0.02840000
C       -1.18220000      -0.73070000      -0.07570000
C       -1.11420000      -2.15770000       0.00350000
N       -2.29640000      -2.89570000      -0.09980000
N       -0.00220000      -2.82750000       0.11620000
N        1.13800000      -2.06570000       0.11450000
C        1.26080000      -0.70310000       0.05920000
N        2.34920000      -0.00550000       0.06150000
H        1.01510000       1.69800000      -0.16470000
H       -0.70280000       1.91790000      -0.34060000
H       -2.14840000      -0.24820000      -0.17990000
H       -3.07370000      -2.49550000       0.40810000
H       -2.15290000      -3.86530000       0.15200000
H        1.97870000      -2.61790000       0.17580000
H        3.18400000      -0.58790000       0.11200000
