13
Properties=species:S:1:pos:R:3 gdb_61700=T pbc="F F F"
O        0.02150000       1.37450000       0.15980000
C       -0.03990000      -0.02900000      -0.00400000
C        0.51750000      -0.77180000       1.23880000
C       -0.13360000      -0.27660000       2.52600000
O        0.49890000       0.00120000       3.50750000
C       -1.46900000      -0.36200000      -0.19700000
N       -2.57740000      -0.65910000      -0.31740000
C        0.71510000      -0.45710000      -1.20690000
N        1.36290000      -0.76760000      -2.11090000
H        0.94780000       1.62840000       0.26300000
H        0.33400000      -1.84790000       1.13220000
H        1.59760000      -0.61450000       1.30290000
H       -1.24130000      -0.21160000       2.50160000
