19
Properties=species:S:1:pos:R:3 gdb_39597=T pbc="F F F"
C       -0.06500000       1.53150000       0.03290000
C        1.41730000       1.86910000      -0.05330000
C        2.18730000       0.86820000       0.38820000
C        1.31370000      -0.25200000       0.90300000
C        1.61270000      -1.74290000       0.80000000
O        0.45030000      -2.42650000       1.28310000
C       -0.72770000      -2.09090000       0.59210000
O       -1.05590000      -0.71600000       0.64030000
C        0.02950000       0.00550000       0.09810000
H       -0.51450000       1.93590000       0.95110000
H       -0.65360000       1.90000000      -0.81220000
H        1.77750000       2.82730000      -0.40970000
H        3.26940000       0.88510000       0.45210000
H        1.08210000      -0.06590000       1.96360000
H        1.82860000      -2.03640000      -0.24060000
H        2.44170000      -2.07240000       1.43190000
H       -0.63880000      -2.40150000      -0.46660000
H       -1.54010000      -2.63120000       1.08070000
H        0.21480000      -0.35340000      -0.93150000
