21
Properties=species:S:1:pos:R:3 gdb_99408=T pbc="F F F"
C       -1.51160000      -0.91570000       0.27650000
O       -0.36630000      -0.23140000       0.78030000
C        0.86070000      -0.80670000       0.67730000
N        1.93060000      -0.16690000       0.90030000
C        1.84090000       1.25410000       1.19390000
N        0.84100000      -2.14470000       0.25770000
C        2.01450000      -2.96860000       0.49510000
C        0.76030000      -3.23640000       1.25550000
C        0.67550000      -2.93680000       2.73350000
H       -1.76160000      -1.79080000       0.88550000
H       -2.33040000      -0.19570000       0.33290000
H       -1.36360000      -1.23530000      -0.75790000
H        2.81620000       1.71630000       1.01640000
H        1.08770000       1.77170000       0.58640000
H        1.58050000       1.42670000       2.24710000
H        2.29910000      -3.61030000      -0.33400000
H        2.83380000      -2.49170000       1.02450000
H        0.13000000      -4.05740000       0.91760000
H        1.32190000      -2.09780000       3.00270000
H       -0.34940000      -2.69380000       3.03460000
H        0.99170000      -3.81260000       3.30950000
