16
Properties=species:S:1:pos:R:3 gdb_87550=T pbc="F F F"
O       -0.05220000       1.44410000       0.17100000
C       -0.00440000       0.06270000       0.00220000
C       -0.34290000      -0.74960000       1.20200000
C       -1.31240000      -0.70730000       0.04120000
C       -2.73240000      -0.19250000      -0.00200000
C       -3.19350000      -0.07150000      -1.39430000
N       -3.18620000      -1.43450000      -0.78270000
C       -1.78470000      -1.86940000      -0.78510000
O       -1.30390000      -2.86050000      -1.24050000
H       -0.30970000       1.84310000      -0.66720000
H        0.76420000      -0.31500000      -0.67160000
H        0.18710000      -1.68010000       1.37170000
H       -0.63150000      -0.20020000       2.09170000
H       -3.30900000       0.14150000       0.85120000
H       -4.20070000       0.28710000      -1.58230000
H       -2.47850000       0.14470000      -2.18500000
