18
Properties=species:S:1:pos:R:3 gdb_5532=T pbc="F F F"
C        0.22570000       1.05020000      -0.45020000
N       -0.44760000       0.21760000       0.55480000
C        0.38690000      -0.64700000       1.29120000
C        0.79930000      -1.95270000       1.09740000
C        0.43820000      -2.83800000      -0.05720000
C        1.62730000      -2.28930000       2.21210000
C        1.70470000      -1.19010000       3.03250000
N        0.94690000      -0.19720000       2.46650000
H        0.75850000       0.47400000      -1.22220000
H       -0.51390000       1.69240000      -0.93830000
H        0.95570000       1.69610000       0.04620000
H       -1.20510000      -0.30140000       0.12890000
H        1.32760000      -3.21640000      -0.57450000
H       -0.14230000      -3.71340000       0.25930000
H       -0.16280000      -2.29970000      -0.79770000
H        2.11830000      -3.23680000       2.37910000
H        2.23090000      -1.03120000       3.95980000
H        0.74260000       0.70170000       2.86710000
