20
Properties=species:S:1:pos:R:3 gdb_66840=T pbc="F F F"
C       -0.04200000       1.43000000      -0.01380000
C        0.01740000      -0.06380000       0.07160000
C        0.22440000      -1.00430000      -1.12720000
N        0.91350000      -2.19670000      -0.54590000
C        1.89710000      -1.60690000       0.43930000
C        0.69580000      -0.95340000       1.14720000
C       -0.17530000      -2.10570000       0.54580000
C       -1.02460000      -1.12080000      -0.29660000
C       -2.47840000      -1.05550000      -0.63610000
H        0.96390000       1.86680000      -0.04140000
H       -0.56250000       1.75240000      -0.92250000
H       -0.57110000       1.86920000       0.84010000
H        0.37080000      -0.67120000      -2.14800000
H        2.35540000      -2.41420000       1.01880000
H        2.67360000      -0.97180000       0.00060000
H        0.68440000      -0.63190000       2.18910000
H       -0.48700000      -3.01830000       1.05210000
H       -3.09770000      -0.94280000       0.26140000
H       -2.68830000      -0.20240000      -1.29040000
H       -2.80730000      -1.96130000      -1.15840000
