19
Properties=species:S:1:pos:R:3 gdb_76704=T pbc="F F F"
C       -0.43360000       1.23950000      -0.21260000
C        0.34980000      -0.05140000      -0.11750000
C        1.77790000      -0.04130000       0.39450000
O        2.30210000       1.19130000       0.76800000
C        0.66570000      -0.66290000       1.22220000
O        0.18800000       0.01430000       2.34990000
C        0.78320000      -0.39760000       3.56610000
C        2.19300000      -0.01630000       3.71600000
C        3.34820000       0.29500000       3.84650000
H       -0.12270000       1.94040000       0.56170000
H       -0.26910000       1.71330000      -1.18570000
H       -1.50680000       1.05400000      -0.10240000
H        0.14210000      -0.77090000      -0.90530000
H        2.49010000      -0.72300000      -0.07250000
H        2.62890000       1.11010000       1.67310000
H        0.63860000      -1.74930000       1.32110000
H        0.19310000       0.07190000       4.36000000
H        0.69360000      -1.48870000       3.69080000
H        4.36850000       0.56280000       3.97620000
