20
Properties=species:S:1:pos:R:3 gdb_64096=T pbc="F F F"
C       -0.10590000       1.53690000       0.01680000
C       -0.03940000       0.00680000       0.00150000
C       -1.45970000      -0.58060000      -0.03290000
C        0.77560000      -0.44850000      -1.21610000
O        1.06480000      -1.85850000      -1.22630000
C        1.28920000      -2.54180000      -0.07930000
O        1.68500000      -3.67430000      -0.13280000
C        0.93440000      -1.86330000       1.24470000
N        0.65060000      -0.43160000       1.22810000
H        0.89700000       1.97700000       0.06340000
H       -0.59900000       1.92000000      -0.88160000
H       -0.66540000       1.87660000       0.89220000
H       -2.01880000      -0.17110000      -0.87950000
H       -1.45730000      -1.66860000      -0.14020000
H       -1.98820000      -0.32800000       0.89010000
H        0.25000000      -0.25990000      -2.15740000
H        1.72960000       0.09490000      -1.24640000
H        0.06550000      -2.41530000       1.62690000
H        1.74730000      -2.07200000       1.94410000
H        1.52360000       0.08180000       1.30430000
