15
Properties=species:S:1:pos:R:3 gdb_61363=T pbc="F F F"
C       -0.05340000       1.43610000      -0.11650000
C        0.04480000      -0.08070000      -0.05040000
O        0.79690000      -0.52680000       1.10220000
C        2.12730000      -0.60430000       0.97560000
N        2.76290000      -0.30490000      -0.07830000
C        2.73740000      -1.08110000       2.20510000
N        3.28540000      -1.45510000       3.15120000
C       -1.30970000      -0.77000000       0.06620000
O       -2.30080000      -0.37040000      -0.48210000
H        0.92060000       1.87420000      -0.33890000
H       -0.76050000       1.70370000      -0.90490000
H       -0.42500000       1.83620000       0.83060000
H        0.54030000      -0.46880000      -0.94970000
H        3.76400000      -0.44760000       0.02850000
H       -1.29770000      -1.69250000       0.68560000
