15
Properties=species:S:1:pos:R:3 gdb_28751=T pbc="F F F"
O        1.21530000       0.76020000       0.16860000
C        0.32750000      -0.23110000      -0.09430000
C       -0.80860000      -0.30460000      -0.86290000
C       -1.30870000      -1.64120000      -0.73130000
C       -0.45130000      -2.30640000       0.10810000
N       -0.47620000      -3.62830000       0.56660000
C        0.42650000      -4.20550000       1.40270000
O        1.40110000      -3.64850000       1.88120000
N        0.54800000      -1.44250000       0.49700000
H        0.93310000       1.54950000      -0.30280000
H       -1.23750000       0.49200000      -1.45000000
H       -2.19000000      -2.05020000      -1.20030000
H       -1.24100000      -4.19650000       0.23810000
H        0.17720000      -5.26160000       1.60880000
H        1.29700000      -1.71620000       1.11660000
