25
Properties=species:S:1:pos:R:3 gdb_60255=T pbc="F F F"
C        0.09920000       1.57970000      -0.02030000
C        0.04340000       0.05150000       0.01940000
O        0.75190000      -0.45460000       1.15090000
C       -1.39440000      -0.48360000      -0.04520000
C       -1.48670000      -2.00490000      -0.09670000
C       -1.19290000      -2.85840000       1.16770000
C       -2.32880000      -3.82350000       0.73790000
C       -2.88200000      -2.71260000      -0.20480000
C       -4.06830000      -1.94990000       0.38190000
H        1.13500000       1.92210000       0.05310000
H       -0.33320000       1.97140000      -0.94680000
H       -0.46330000       2.01090000       0.81770000
H        0.60080000      -0.34500000      -0.83930000
H        0.30050000      -0.13740000       1.94110000
H       -1.95330000      -0.09570000       0.81930000
H       -1.87870000      -0.05690000      -0.93470000
H       -0.85570000      -2.36340000      -0.91970000
H       -0.18530000      -3.26170000       1.27830000
H       -1.44300000      -2.31930000       2.08720000
H       -1.94890000      -4.68530000       0.18180000
H       -3.00540000      -4.18720000       1.51680000
H       -3.13970000      -3.04560000      -1.21580000
H       -3.87580000      -1.62170000       1.40950000
H       -4.31460000      -1.06170000      -0.20990000
H       -4.95740000      -2.58960000       0.40550000
