19
Properties=species:S:1:pos:R:3 gdb_126424=T pbc="F F F"
C        0.07650000       1.54040000       0.09490000
C       -0.05850000       0.02110000      -0.10520000
C        0.72760000      -0.49000000      -1.27430000
N        0.12310000      -0.79670000      -2.41680000
N        1.13330000      -1.19980000      -3.24140000
C        2.34570000      -1.16940000      -2.64260000
N        3.54230000      -1.47990000      -3.28350000
C        2.13150000      -0.70830000      -1.35460000
N        3.18060000      -0.56340000      -0.39970000
H        1.11890000       1.82750000       0.27010000
H       -0.27190000       2.07840000      -0.79160000
H       -0.51200000       1.87730000       0.95430000
H        0.26610000      -0.49230000       0.80940000
H       -1.10980000      -0.23950000      -0.26020000
H        0.92230000      -1.43680000      -4.19480000
H        3.53220000      -2.38020000      -3.74940000
H        4.28950000      -1.46240000      -2.59640000
H        3.34150000       0.40890000      -0.15460000
H        2.97160000      -1.05270000       0.46500000
