14
Properties=species:S:1:pos:R:3 gdb_125482=T pbc="F F F"
C       -0.02370000       1.48850000       0.01510000
C       -0.00510000      -0.00940000       0.00050000
N        0.14460000      -0.62470000      -1.18680000
C        0.15470000      -1.94230000      -1.14790000
C        0.01640000      -2.63550000       0.06820000
N       -0.12950000      -1.95730000       1.21740000
N       -0.13970000      -0.63410000       1.17840000
C        0.02670000      -4.05750000       0.11580000
C        0.04060000      -5.26040000       0.11370000
H        0.90830000       1.88110000      -0.40390000
H       -0.83810000       1.86140000      -0.61410000
H       -0.15040000       1.85400000       1.03390000
H        0.27340000      -2.48230000      -2.08420000
H        0.05080000      -6.32270000       0.12910000
