18
Properties=species:S:1:pos:R:3 gdb_97438=T pbc="F F F"
C        0.21400000       0.68740000      -0.64500000
N       -0.15380000       0.02220000       0.58670000
C        0.66920000      -0.79320000       1.06980000
O        0.40490000      -1.41890000       2.24110000
C        1.30100000      -2.43330000       2.65240000
C        0.89500000      -3.80190000       2.07010000
O        0.96120000      -3.80020000       0.64870000
C        1.70790000      -4.86360000       2.66330000
C        2.42940000      -5.70310000       3.13220000
H        1.20390000       0.39710000      -1.03470000
H       -0.53410000       0.47180000      -1.41640000
H        0.21040000       1.77290000      -0.49330000
H        1.64400000      -1.04920000       0.62970000
H        2.33310000      -2.20000000       2.35610000
H        1.25530000      -2.46810000       3.74400000
H       -0.16300000      -3.95920000       2.30990000
H        1.87570000      -3.97130000       0.39700000
H        3.04410000      -6.46240000       3.54980000
