14
Properties=species:S:1:pos:R:3 gdb_66736=T pbc="F F F"
O       -0.45090000       1.17330000       0.15480000
C       -0.04470000      -0.09970000       0.09780000
C        0.86530000      -0.88510000      -0.87210000
C       -0.05420000      -2.05890000      -0.89070000
N        1.01760000      -1.97100000       0.15950000
C        0.05750000      -1.19880000       1.06450000
C       -1.07590000      -1.37590000       0.02710000
C       -2.44710000      -0.99090000       0.11720000
O       -2.80760000      -0.07620000       0.86280000
H       -1.33400000       1.15550000       0.58860000
H        1.67260000      -0.58270000      -1.52670000
H       -0.12270000      -2.88600000      -1.58860000
H       -0.01320000      -1.28840000       2.14150000
H       -3.17240000      -1.50150000      -0.54570000
