12
Properties=species:S:1:pos:R:3 gdb_736=T pbc="F F F"
C       -0.02170000       1.47890000      -0.03010000
C        0.00190000      -0.01540000       0.04820000
N       -0.07240000      -0.75280000      -1.05910000
N       -0.02440000      -2.02850000      -0.62450000
C        0.07790000      -2.12700000       0.72220000
C        0.09840000      -0.83590000       1.20050000
H        0.89090000       1.91660000       0.38930000
H       -0.10750000       1.79500000      -1.07180000
H       -0.86700000       1.89610000       0.52810000
H       -0.06620000      -2.77390000      -1.29760000
H        0.12670000      -3.08280000       1.22000000
H        0.17200000      -0.52550000       2.23040000
