23
Properties=species:S:1:pos:R:3 gdb_116451=T pbc="F F F"
C        0.06600000       1.55910000       0.04970000
C        0.00420000       0.02970000      -0.03320000
C       -1.42010000      -0.54680000      -0.04920000
C       -2.20880000      -0.17020000      -1.31430000
O       -3.53010000      -0.69070000      -1.29380000
C       -3.54620000      -2.10570000      -1.23850000
C       -2.85770000      -2.61740000       0.02850000
C       -1.42230000      -2.07690000       0.11340000
O       -0.60440000      -2.61460000      -0.92730000
H        1.10230000       1.90240000       0.12800000
H       -0.36830000       2.03760000      -0.83360000
H       -0.47420000       1.93250000       0.92730000
H        0.54360000      -0.32210000      -0.91890000
H        0.53560000      -0.39600000       0.82810000
H       -1.97320000      -0.14230000       0.81020000
H       -2.31970000       0.91360000      -1.39970000
H       -1.66940000      -0.53230000      -2.20390000
H       -4.59850000      -2.40360000      -1.26340000
H       -3.04860000      -2.52760000      -2.12610000
H       -3.42090000      -2.28740000       0.90950000
H       -2.85140000      -3.71580000       0.04100000
H       -0.98810000      -2.32960000       1.09420000
H       -0.61270000      -3.57340000      -0.84740000
