21
Properties=species:S:1:pos:R:3 gdb_119707=T pbc="F F F"
C        0.01550000       1.60280000       0.06110000
C       -0.01220000       0.07420000       0.13100000
C       -1.41250000      -0.51100000      -0.11550000
C       -1.44220000      -2.01120000      -0.04530000
C       -0.89550000      -2.97050000      -1.10020000
O       -1.95440000      -3.94050000      -0.83900000
C       -2.57650000      -3.02930000       0.08060000
C       -1.64680000      -2.82220000       1.22910000
O       -0.78830000      -3.83320000       1.65320000
H        1.02240000       1.99190000       0.24060000
H       -0.31010000       1.96150000      -0.92170000
H       -0.65080000       2.04520000       0.81030000
H        0.68780000      -0.34000000      -0.60630000
H        0.34710000      -0.26190000       1.11130000
H       -2.11210000      -0.10030000       0.62460000
H       -1.78020000      -0.17740000      -1.09640000
H       -0.97890000      -2.59120000      -2.12470000
H        0.10190000      -3.39230000      -0.93390000
H       -3.65950000      -2.96410000       0.06980000
H       -2.04070000      -2.24000000       2.05870000
H       -0.92360000      -4.56770000       1.03840000
