15
Properties=species:S:1:pos:R:3 gdb_50449=T pbc="F F F"
N        0.04430000       1.34590000      -0.07170000
C        0.02650000       0.07910000      -0.04970000
N       -1.09560000      -0.75290000       0.01070000
C       -0.75800000      -2.18010000      -0.16330000
C        0.75610000      -2.26540000       0.08250000
C        1.24290000      -0.83370000      -0.07380000
O        2.37250000      -0.43850000      -0.17980000
C       -2.41840000      -0.36170000       0.16780000
O       -2.81770000       0.76450000       0.28490000
H        1.02770000       1.63420000      -0.10830000
H       -1.33460000      -2.78830000       0.53720000
H       -1.00850000      -2.50730000      -1.17890000
H        0.97830000      -2.58390000       1.10740000
H        1.27740000      -2.94420000      -0.59420000
H       -3.08300000      -1.25010000       0.18310000
