18
Properties=species:S:1:pos:R:3 gdb_67375=T pbc="F F F"
C       -0.02580000       1.54430000       0.01300000
C        0.01560000       0.04510000      -0.01250000
C        0.47340000      -0.97830000      -1.08170000
C        1.24610000      -1.77280000      -0.03080000
C        0.63330000      -0.85440000       1.08520000
N       -0.34040000      -1.50370000       1.95580000
C       -1.37690000      -1.92950000       1.36740000
O       -1.69120000      -1.82300000       0.04980000
C       -0.96940000      -0.83890000      -0.68270000
H        0.97540000       1.96790000       0.15040000
H       -0.43400000       1.94920000      -0.91890000
H       -0.65450000       1.90440000       0.83590000
H        0.78080000      -0.80420000      -2.10700000
H        1.02430000      -2.84020000       0.05330000
H        2.32670000      -1.63860000      -0.11990000
H        1.38550000      -0.35540000       1.69680000
H       -2.15840000      -2.46620000       1.90080000
H       -1.62770000      -0.39240000      -1.41930000
