18
Properties=species:S:1:pos:R:3 gdb_47727=T pbc="F F F"
O        0.02590000       0.02270000       0.32660000
C       -0.01840000       1.20840000       0.10650000
C       -1.32420000       1.97300000      -0.06830000
C       -1.20980000       3.13290000      -1.06690000
N       -0.07790000       3.97480000      -0.68780000
C        1.18870000       3.27140000      -0.86810000
C        1.23820000       2.06160000       0.05120000
C        2.11060000       2.03540000       1.24410000
O        2.46880000       1.35100000       0.05050000
H       -2.10730000       1.26180000      -0.34280000
H       -1.57600000       2.38950000       0.91620000
H       -1.11320000       2.72530000      -2.09110000
H       -2.12380000       3.73370000      -1.04240000
H       -0.07610000       4.82790000      -1.23520000
H        1.33740000       2.90900000      -1.90340000
H        2.02020000       3.94330000      -0.63630000
H        2.69840000       2.92090000       1.48370000
H        1.84610000       1.39290000       2.08200000
