18
Properties=species:S:1:pos:R:3 gdb_45129=T pbc="F F F"
N       -0.12240000       1.32430000       0.28340000
C        0.01990000       0.08000000       0.06560000
O       -1.13500000      -0.63530000      -0.13630000
C       -1.29490000      -1.82810000       0.59160000
C       -2.01950000      -2.93160000      -0.11750000
C       -0.53200000      -3.03980000       0.14470000
C        0.47420000      -2.82940000      -0.97790000
C        1.54050000      -1.83790000      -0.57900000
C        1.31750000      -0.61010000      -0.09470000
H        0.79060000       1.77610000       0.33450000
H       -1.47990000      -1.66440000       1.65050000
H       -2.70310000      -3.54820000       0.45480000
H       -2.33450000      -2.72550000      -1.13470000
H       -0.21190000      -3.72210000       0.92680000
H        0.93060000      -3.78220000      -1.26100000
H       -0.04660000      -2.45980000      -1.86890000
H        2.57580000      -2.15090000      -0.69280000
H        2.17260000       0.00880000       0.16490000
