19
Properties=species:S:1:pos:R:3 gdb_111932=T pbc="F F F"
O       -0.07580000       1.46230000      -0.12430000
C        0.01060000       0.04650000      -0.09800000
C       -1.40130000      -0.51200000       0.05450000
C       -2.18730000      -0.31390000      -1.24150000
C       -2.84210000      -1.44800000      -1.55850000
C       -2.10970000      -2.42180000      -2.49420000
C       -1.61290000      -3.01070000      -1.12050000
C       -1.48140000      -2.05110000       0.14010000
C       -2.80380000      -2.45750000      -0.39400000
H        0.80320000       1.81690000      -0.28620000
H        0.46470000      -0.34770000      -1.02120000
H        0.62520000      -0.30360000       0.74750000
H       -1.83240000      -0.06890000       0.96410000
H       -1.79760000       0.37000000      -1.99030000
H       -2.72080000      -3.17970000      -2.99880000
H       -1.39160000      -1.98810000      -3.19630000
H       -1.21160000      -4.01650000      -1.01640000
H       -1.06100000      -2.56420000       1.00450000
H       -3.62970000      -2.95890000       0.09300000
