20
Properties=species:S:1:pos:R:3 gdb_103692=T pbc="F F F"
C       -0.09020000       1.57380000       0.03900000
C       -0.04800000       0.05670000       0.02550000
C       -1.31980000      -0.56940000      -0.51400000
O       -1.45680000      -0.15520000      -1.86750000
C        1.24140000      -0.65270000      -0.27630000
C        0.69190000      -0.69050000       1.14720000
C        1.41100000       0.05860000       2.26270000
C        0.13270000      -1.94450000       1.59520000
N       -0.30550000      -2.94230000       1.98580000
H        0.87780000       2.02140000       0.27140000
H       -0.39520000       1.92370000      -0.95050000
H       -0.82100000       1.94270000       0.76770000
H       -1.26980000      -1.66350000      -0.43730000
H       -2.17720000      -0.23510000       0.09200000
H       -2.29610000      -0.48890000      -2.19770000
H        1.20400000      -1.56500000      -0.86020000
H        2.13610000      -0.05710000      -0.42390000
H        1.89820000       0.95810000       1.88380000
H        0.71520000       0.35170000       3.05450000
H        2.18050000      -0.57820000       2.70870000
