23
Properties=species:S:1:pos:R:3 gdb_100007=T pbc="F F F"
C       -0.12190000       1.36650000       0.05590000
O       -0.08660000      -0.03090000      -0.13270000
C        0.70730000      -0.54700000      -1.20940000
C        0.15430000      -0.08740000      -2.56920000
C        2.17790000      -0.13170000      -1.05120000
C        0.58020000      -2.09880000      -1.02620000
C       -0.86620000      -2.58460000      -0.86140000
C        1.24020000      -2.83940000      -2.17980000
O        2.41080000      -3.11840000      -2.24710000
H        0.86480000       1.78770000       0.29090000
H       -0.53180000       1.90360000      -0.81040000
H       -0.78210000       1.54190000       0.90930000
H        0.24830000       0.99560000      -2.68520000
H        0.71500000      -0.54420000      -3.39080000
H       -0.90090000      -0.35010000      -2.68000000
H        2.50470000      -0.30650000      -0.02170000
H        2.82160000      -0.71560000      -1.71220000
H        2.32240000       0.92660000      -1.28670000
H        1.15430000      -2.34360000      -0.12600000
H       -0.88600000      -3.65720000      -0.64210000
H       -1.35340000      -2.05190000      -0.04550000
H       -1.45380000      -2.42530000      -1.77190000
H        0.54340000      -3.13060000      -3.00080000
