23
Properties=species:S:1:pos:R:3 gdb_91655=T pbc="F F F"
C       -0.20510000       1.50980000      -0.02000000
C        0.03780000       0.00260000       0.03250000
C        0.99550000      -0.55390000      -1.08290000
C        2.02090000      -1.29270000      -0.19750000
C        1.10040000      -1.99110000       0.85040000
C        0.80580000      -0.51950000       1.27470000
C        2.28010000      -0.25690000       0.91100000
C        3.44920000      -0.22840000       1.83970000
C        3.14080000       0.96340000       0.94450000
H        0.73320000       2.07090000       0.00830000
H       -0.72840000       1.78680000      -0.94190000
H       -0.82250000       1.84180000       0.82250000
H       -0.93370000      -0.50330000      -0.02210000
H        0.48680000      -1.22160000      -1.78470000
H        1.45930000       0.25270000      -1.66010000
H        2.83830000      -1.81840000      -0.69360000
H        0.26250000      -2.58810000       0.47700000
H        1.66380000      -2.54540000       1.60270000
H        0.40010000      -0.26940000       2.25680000
H        3.26860000      -0.11810000       2.90480000
H        4.32060000      -0.83020000       1.59940000
H        3.80380000       1.15320000       0.10550000
H        2.76210000       1.86290000       1.41940000
