19
Properties=species:S:1:pos:R:3 gdb_121762=T pbc="F F F"
C       -0.25690000       1.37210000      -0.01870000
O       -0.06650000      -0.02050000       0.08420000
C       -1.25770000      -0.73510000      -0.03410000
C       -0.96550000      -2.22320000       0.07430000
O        0.11060000      -2.73070000       0.21630000
O       -2.12880000      -2.90820000      -0.01310000
C       -2.02250000      -4.34640000       0.04990000
C       -3.44010000      -4.88180000      -0.03220000
O       -4.07260000      -4.53720000      -1.24840000
H        0.72470000       1.83890000       0.08420000
H       -0.68720000       1.65470000      -0.99250000
H       -0.91960000       1.75410000       0.77390000
H       -1.98600000      -0.46690000       0.75060000
H       -1.75940000      -0.55130000      -1.00020000
H       -1.41650000      -4.69590000      -0.79110000
H       -1.52840000      -4.63760000       0.98210000
H       -3.41000000      -5.97530000       0.01200000
H       -4.01380000      -4.52720000       0.83860000
H       -4.02970000      -3.57730000      -1.31840000
