19
Properties=species:S:1:pos:R:3 gdb_104927=T pbc="F F F"
C       -0.10650000       1.45230000      -0.11120000
C        0.11900000      -0.03680000      -0.00010000
O       -0.92740000      -0.70950000      -0.60100000
C        1.48620000      -0.61480000      -0.02610000
C        0.73390000      -0.64110000       1.32110000
C        1.23480000       0.20790000       2.47150000
O        2.26840000      -0.44560000       3.19810000
C        0.16990000      -1.94240000       1.72340000
O       -0.22970000      -2.79570000       0.94900000
H        0.72840000       2.03060000       0.28660000
H       -0.22700000       1.70610000      -1.16890000
H       -1.02290000       1.74280000       0.41010000
H       -0.82620000      -1.65800000      -0.40490000
H        1.61710000      -1.57600000      -0.51320000
H        2.33860000       0.05620000      -0.08250000
H        1.56060000       1.19390000       2.11530000
H        0.43500000       0.37690000       3.20100000
H        2.98100000      -0.64130000       2.57980000
H        0.10110000      -2.10730000       2.81660000
