14
Properties=species:S:1:pos:R:3 gdb_133140=T pbc="F F F"
C       -0.02030000       1.52530000      -0.01150000
C       -0.02920000       0.02580000      -0.05760000
C       -1.11660000      -0.73010000       0.17610000
F       -2.28960000      -0.19860000       0.46990000
C       -1.07920000      -2.18600000       0.12180000
N       -2.09580000      -2.90850000       0.33940000
O        0.15360000      -2.73980000      -0.18650000
N        1.30190000      -1.98870000      -0.43510000
C        1.17680000      -0.71160000      -0.36580000
H        0.69160000       1.88660000       0.73900000
H        0.28730000       1.94190000      -0.97700000
H       -1.00830000       1.91540000       0.23430000
H       -1.86000000      -3.89810000       0.25280000
H        2.09850000      -0.17180000      -0.56740000
