21
Properties=species:S:1:pos:R:3 gdb_96125=T pbc="F F F"
C       -0.10700000       1.51620000      -0.03450000
C        0.05200000       0.00210000       0.00610000
O        0.73890000      -0.38750000      -1.17530000
C        0.87600000      -1.79750000      -1.27020000
C        1.87600000      -2.34200000      -0.24390000
C        1.68660000      -1.68360000       1.11950000
C        2.26680000      -0.30040000       1.37280000
C        0.77950000      -0.49200000       1.25270000
O        0.00210000      -0.45290000       2.42070000
H        0.87120000       2.00590000      -0.03650000
H       -0.64670000       1.81680000      -0.93630000
H       -0.67390000       1.86520000       0.83450000
H       -0.94720000      -0.46820000       0.01820000
H       -0.10870000      -2.27180000      -1.12730000
H        1.20450000      -2.00740000      -2.29240000
H        1.74380000      -3.42640000      -0.16160000
H        2.89930000      -2.17620000      -0.60040000
H        1.68400000      -2.34370000       1.98030000
H        2.66420000      -0.09480000       2.36060000
H        2.78660000       0.17910000       0.54910000
H       -0.00750000       0.45580000       2.74060000
