20
Properties=species:S:1:pos:R:3 gdb_110502=T pbc="F F F"
C       -0.00930000       1.56680000       0.04450000
C        0.03910000       0.06180000       0.04080000
C       -1.20700000      -0.81940000       0.26520000
N       -0.33910000      -1.91590000       0.80470000
C        0.92600000      -1.84800000      -0.01660000
C        0.71300000      -0.90620000       1.10300000
C        0.83050000      -0.72770000      -1.05560000
C        0.25900000      -0.98080000      -2.44650000
O        1.15380000      -1.73900000      -3.25220000
H        0.99600000       2.00020000       0.01420000
H       -0.55890000       1.94380000      -0.82610000
H       -0.51180000       1.94500000       0.94160000
H       -1.83260000      -0.45160000       1.08410000
H       -1.84350000      -1.08570000      -0.58610000
H        1.52260000      -2.75140000      -0.03430000
H        1.18690000      -0.77430000       2.06710000
H        1.82390000      -0.27800000      -1.16860000
H       -0.72500000      -1.46690000      -2.39340000
H        0.12390000      -0.02880000      -2.97280000
H        1.22540000      -2.61540000      -2.86080000
