19
Properties=species:S:1:pos:R:3 gdb_55442=T pbc="F F F"
C        0.22250000       1.23010000       0.06110000
C       -0.12790000      -0.20130000      -0.30800000
O        0.69400000      -0.97980000      -0.72360000
C       -1.61050000      -0.61780000      -0.12010000
O       -1.88550000      -1.86100000      -0.71200000
C       -1.54470000      -2.98090000       0.10200000
C       -2.37520000      -2.99690000       1.38580000
C       -2.37370000      -1.63110000       2.01630000
C       -2.01110000      -0.54530000       1.33630000
H        1.21180000       1.47320000      -0.32880000
H       -0.51820000       1.93900000      -0.32300000
H        0.23790000       1.33580000       1.15190000
H       -2.20670000       0.11630000      -0.68380000
H       -1.74130000      -3.86180000      -0.51420000
H       -0.47430000      -2.96060000       0.33800000
H       -3.40750000      -3.30710000       1.17290000
H       -1.96740000      -3.74120000       2.08110000
H       -2.69100000      -1.54400000       3.05210000
H       -2.00620000       0.43600000       1.80110000
