23
Properties=species:S:1:pos:R:3 gdb_38856=T pbc="F F F"
C       -0.06600000       1.51130000       0.06270000
C        1.47800000       1.45200000      -0.06300000
C        2.10000000       1.19630000       1.32650000
C        1.78110000      -0.25740000       1.74670000
C        2.65600000      -1.20540000       0.90410000
C        2.35240000      -0.99770000      -0.60610000
C        1.28370000       0.07890000      -0.78940000
C       -0.04060000      -0.03850000       0.03720000
C        0.29740000      -0.57290000       1.44540000
H       -0.48520000       1.99810000       0.95050000
H       -0.53480000       1.92880000      -0.83290000
H        1.98200000       2.25870000      -0.60210000
H        3.18740000       1.33660000       1.30330000
H        1.70410000       1.91940000       2.05030000
H        1.99880000      -0.40780000       2.80890000
H        3.71330000      -1.01370000       1.11660000
H        2.46170000      -2.24220000       1.19920000
H        3.25880000      -0.70750000      -1.14980000
H        2.01150000      -1.93160000      -1.06750000
H        1.05750000       0.23820000      -1.84770000
H       -0.88980000      -0.55990000      -0.41270000
H        0.13800000      -1.65640000       1.50440000
H       -0.36890000      -0.11530000       2.18700000
