18
Properties=species:S:1:pos:R:3 gdb_49592=T pbc="F F F"
O       -0.16360000      -0.06030000       0.12120000
C       -0.02000000       1.12130000      -0.05330000
C        1.29370000       1.88150000      -0.03270000
C        1.35740000       2.85960000       1.16200000
C        1.31800000       2.30660000       2.56500000
C        2.64740000       2.54640000       1.89200000
C        3.32590000       1.42820000       1.13040000
C        2.69600000       0.08760000       1.04260000
N        2.51190000       1.05670000      -0.05160000
H       -0.89670000       1.78610000      -0.23510000
H        1.29910000       2.48950000      -0.94920000
H        1.02950000       3.87960000       0.99490000
H        1.03530000       2.99870000       3.35160000
H        0.97320000       1.29390000       2.73560000
H        3.27990000       3.34230000       2.26690000
H        4.39340000       1.53890000       0.96160000
H        3.29580000      -0.77390000       0.76120000
H        1.86300000      -0.15550000       1.68880000
