15
Properties=species:S:1:pos:R:3 gdb_6655=T pbc="F F F"
C       -0.03910000       1.45580000      -0.15360000
C       -0.09760000      -0.03370000       0.07300000
O       -0.22730000      -0.58850000       1.13210000
O        0.01790000      -0.70140000      -1.10360000
C       -0.02500000      -2.12920000      -1.00510000
C        0.12200000      -2.65180000      -2.43690000
C        0.09470000      -4.11070000      -2.48540000
N        0.07160000      -5.26530000      -2.50990000
H        0.90630000       1.72580000      -0.63250000
H       -0.84430000       1.76500000      -0.82600000
H       -0.13320000       1.97040000       0.80160000
H        0.78510000      -2.48650000      -0.36350000
H       -0.97080000      -2.44720000      -0.55800000
H       -0.68670000      -2.25550000      -3.05990000
H        1.06410000      -2.29460000      -2.86600000
