21
Properties=species:S:1:pos:R:3 gdb_93975=T pbc="F F F"
C        0.02020000       1.58130000       0.02180000
C        0.01760000       0.05110000      -0.00690000
C        0.68350000      -0.50980000      -1.27350000
C        0.56910000      -2.03820000      -1.34450000
C        0.92130000      -2.68650000      -0.02950000
C        1.21500000      -4.12940000      -0.01170000
O        1.19900000      -4.84610000      -0.98780000
C        0.98380000      -2.00290000       1.12350000
C        0.69700000      -0.53610000       1.24410000
H        1.04400000       1.97230000      -0.01330000
H       -0.52240000       1.99340000      -0.83520000
H       -0.45110000       1.96570000       0.93290000
H       -1.02750000      -0.29130000      -0.00400000
H        0.23600000      -0.05850000      -2.16590000
H        1.74370000      -0.22080000      -1.27550000
H       -0.45120000      -2.33220000      -1.62660000
H        1.21200000      -2.45090000      -2.12890000
H        1.46280000      -4.53570000       0.99600000
H        1.26560000      -2.53300000       2.03290000
H        1.64430000      -0.00750000       1.43870000
H        0.08250000      -0.35260000       2.13550000
