13
Properties=species:S:1:pos:R:3 gdb_49380=T pbc="F F F"
O       -0.15210000      -0.00980000       0.01300000
C       -0.04360000       1.18380000      -0.02260000
N        1.17150000       1.86320000      -0.02310000
C        1.45690000       3.31400000      -0.01860000
C        2.97970000       2.95760000      -0.01500000
C        2.53840000       1.48260000       0.01460000
O        3.07390000       0.42330000       0.06140000
C        0.96430000       4.04490000      -1.18350000
N        0.56930000       4.63120000      -2.09710000
H       -0.89630000       1.88950000      -0.06150000
H        1.11850000       3.81310000       0.89380000
H        3.51740000       3.24290000      -0.91960000
H        3.52730000       3.28950000       0.86750000
