23
Properties=species:S:1:pos:R:3 gdb_112695=T pbc="F F F"
C        0.01610000       1.59740000      -0.01500000
C        0.05820000       0.06580000       0.04570000
C        0.75720000      -0.58320000      -1.17620000
C        1.51240000      -1.82590000      -0.64060000
C        2.86570000      -2.04090000      -1.33130000
O        3.53960000      -3.21200000      -0.89710000
C        1.59850000      -1.53510000       0.84000000
C        0.82760000      -0.51530000       1.22410000
C        0.63640000      -0.01170000       2.62110000
H        1.02890000       2.01560000      -0.04180000
H       -0.50880000       1.93490000      -0.91480000
H       -0.50300000       2.02470000       0.84890000
H       -0.98220000      -0.29140000       0.11090000
H        0.06120000      -0.82470000      -1.98400000
H        1.48630000       0.12930000      -1.58500000
H        0.92780000      -2.74370000      -0.80410000
H        2.71210000      -2.17030000      -2.40850000
H        3.49190000      -1.14400000      -1.19480000
H        3.80010000      -3.07740000       0.01900000
H        2.18690000      -2.13950000       1.52540000
H        1.22330000      -0.58970000       3.34010000
H        0.92770000       1.04150000       2.71490000
H       -0.41850000      -0.06870000       2.92040000
