14
Properties=species:S:1:pos:R:3 gdb_67147=T pbc="F F F"
O       -0.26060000       1.34830000       0.05620000
C        0.02180000       0.02320000       0.00540000
C        0.08260000      -1.05030000      -1.03620000
N        1.32180000      -1.60940000      -0.47800000
C        0.95470000      -0.95750000       0.81520000
C       -0.38750000      -1.60720000       1.27290000
O       -0.81260000      -1.99530000       2.32790000
C       -1.04040000      -1.15830000       0.00580000
O       -2.34890000      -1.14320000      -0.36540000
H        0.47170000       1.84000000      -0.33620000
H       -0.15630000      -1.02640000      -2.09320000
H        1.30640000      -2.63100000      -0.41150000
H        1.73950000      -0.71460000       1.52690000
H       -2.87860000      -0.89530000       0.40310000
