21
Properties=species:S:1:pos:R:3 gdb_68671=T pbc="F F F"
C       -0.01840000       1.58780000       0.02490000
C        0.04060000       0.07420000      -0.05070000
C        0.70180000      -0.64830000      -1.27820000
C       -0.36600000      -1.77920000      -1.11730000
C        0.04900000      -2.77800000      -0.00760000
C        0.91950000      -2.07240000       1.05760000
C        0.53340000      -0.59050000       1.26690000
C       -1.22550000      -0.69530000      -0.45900000
O       -2.40030000      -0.46580000      -0.39100000
H        0.97560000       2.01460000       0.19880000
H       -0.41760000       2.01610000      -0.89970000
H       -0.66970000       1.90700000       0.84550000
H        0.55450000      -0.08110000      -2.20040000
H        1.75260000      -0.93080000      -1.19080000
H       -0.76050000      -2.27870000      -2.00390000
H       -0.85720000      -3.20270000       0.43950000
H        0.60340000      -3.61540000      -0.44500000
H        0.87680000      -2.61480000       2.00700000
H        1.96500000      -2.11700000       0.73700000
H        1.39680000      -0.03380000       1.65100000
H       -0.25810000      -0.49180000       2.01960000
