25
Properties=species:S:1:pos:R:3 gdb_118777=T pbc="F F F"
C        0.04780000       1.58310000       0.14010000
C       -0.01040000       0.05580000       0.22650000
C       -1.36220000      -0.51700000      -0.22460000
C       -1.43680000      -2.03070000      -0.11910000
O       -0.47740000      -2.68150000      -0.92340000
C       -1.79240000      -2.69870000       1.19370000
C       -2.74830000      -2.77690000       0.01040000
C       -4.06030000      -2.01580000       0.09010000
C       -2.88100000      -4.11340000      -0.69930000
H        1.02250000       1.96500000       0.45990000
H       -0.12500000       1.92760000      -0.88550000
H       -0.71590000       2.04500000       0.77580000
H        0.78840000      -0.36930000      -0.39430000
H        0.19120000      -0.26340000       1.25780000
H       -2.15610000      -0.06030000       0.37480000
H       -1.54690000      -0.22790000      -1.26780000
H        0.37430000      -2.60790000      -0.48090000
H       -1.24580000      -3.59870000       1.45770000
H       -2.06500000      -2.07170000       2.03770000
H       -3.98820000      -1.10390000       0.68720000
H       -4.41920000      -1.73700000      -0.90780000
H       -4.83020000      -2.64560000       0.55110000
H       -3.57320000      -4.76570000      -0.15420000
H       -3.28080000      -3.97860000      -1.71130000
H       -1.91900000      -4.61800000      -0.78860000
