21
Properties=species:S:1:pos:R:3 gdb_112903=T pbc="F F F"
C        0.11390000       1.38580000       0.67950000
C        0.15900000      -0.00820000       0.09520000
O        1.25660000      -0.15230000      -0.76880000
C        1.52570000      -1.55340000      -0.79720000
C        2.89810000      -1.80550000      -1.39450000
C        1.29200000      -1.95190000       0.67590000
C        2.50320000      -1.84910000       1.60360000
O        2.10430000      -1.98150000       2.95250000
O        0.32280000      -0.98970000       1.12170000
H        1.04940000       1.59980000       1.20240000
H       -0.02840000       2.12110000      -0.11690000
H       -0.71800000       1.46630000       1.38360000
H       -0.77580000      -0.24020000      -0.44770000
H        0.76110000      -2.05290000      -1.41530000
H        3.68040000      -1.29260000      -0.83030000
H        3.11740000      -2.87750000      -1.40650000
H        2.92660000      -1.44180000      -2.42490000
H        0.85080000      -2.95160000       0.76420000
H        3.21420000      -2.65680000       1.39880000
H        3.01540000      -0.89000000       1.42720000
H        1.35500000      -1.38170000       3.05790000
