16
Properties=species:S:1:pos:R:3 gdb_255=T pbc="F F F"
C       -0.03020000       1.54040000      -0.04170000
C        0.02180000       0.01170000       0.06860000
C        0.85180000      -0.43160000       1.28130000
C       -1.40260000      -0.58190000       0.11940000
C       -1.40910000      -2.08620000      -0.02010000
O       -1.92940000      -2.85710000       0.74450000
H        0.97820000       1.96320000      -0.09730000
H       -0.57950000       1.85950000      -0.93350000
H       -0.52660000       1.97930000       0.83150000
H        0.50870000      -0.37540000      -0.83850000
H        0.40980000      -0.05780000       2.21220000
H        0.90890000      -1.52210000       1.35960000
H        1.87410000      -0.04560000       1.21840000
H       -1.91670000      -0.31070000       1.04750000
H       -1.98640000      -0.18020000      -0.72200000
H       -0.87260000      -2.45780000      -0.92690000
