14
Properties=species:S:1:pos:R:3 gdb_4559=T pbc="F F F"
C       -0.01350000       1.45280000       0.05280000
N       -0.03690000       0.00970000       0.05580000
C       -1.17970000      -0.82130000       0.04710000
C       -0.72030000      -2.08300000       0.04950000
N       -1.30730000      -3.33290000       0.14520000
O        0.65080000      -2.08260000       0.04490000
C        1.09220000      -0.75830000       0.04110000
O        2.25330000      -0.44180000       0.02380000
H        1.03310000       1.76070000       0.04560000
H       -0.51280000       1.85500000      -0.83610000
H       -0.50190000       1.85830000       0.94590000
H       -2.18000000      -0.42750000       0.04870000
H       -2.29350000      -3.32180000      -0.07720000
H       -0.82340000      -4.02890000      -0.40990000
