22
Properties=species:S:1:pos:R:3 gdb_64318=T pbc="F F F"
C       -0.07440000       1.50260000       0.31480000
C       -0.03220000      -0.00470000      -0.00360000
C       -1.44950000      -0.59100000       0.11260000
C        0.55910000      -0.18830000      -1.41540000
C        0.64590000      -1.62440000      -1.94550000
N        1.48110000      -2.59300000      -1.25470000
C        1.53910000      -2.75190000      -0.00750000
O        0.96770000      -2.07900000       1.03280000
C        0.90170000      -0.64970000       1.03060000
H        0.92270000       1.95310000       0.25590000
H       -0.71830000       2.02820000      -0.39760000
H       -0.46950000       1.68730000       1.31970000
H       -2.11020000      -0.16340000      -0.64920000
H       -1.45500000      -1.67720000      -0.00190000
H       -1.88100000      -0.36380000       1.09350000
H       -0.04330000       0.38600000      -2.13140000
H        1.56400000       0.25470000      -1.43350000
H       -0.36340000      -2.05430000      -2.00920000
H        1.00760000      -1.57590000      -2.97880000
H        2.09730000      -3.60230000       0.38820000
H        1.91840000      -0.25280000       0.90200000
H        0.56620000      -0.40200000       2.04210000
