20
Properties=species:S:1:pos:R:3 gdb_116428=T pbc="F F F"
O       -0.16420000       1.44660000      -0.04820000
C        0.01060000       0.03360000       0.00530000
C       -1.38090000      -0.57760000      -0.02090000
N       -2.06290000      -0.21730000      -1.26600000
C       -3.43850000      -0.69600000      -1.32270000
C       -3.43080000      -2.22580000      -1.35060000
C       -2.68350000      -2.78650000      -0.12530000
C       -1.34290000      -2.10380000       0.09420000
O       -0.33180000      -2.70790000       0.36850000
H        0.69760000       1.85180000      -0.17730000
H        0.58060000      -0.33520000      -0.85770000
H        0.53180000      -0.27890000       0.91860000
H       -1.93180000      -0.20840000       0.87140000
H       -2.01310000       0.79070000      -1.36640000
H       -4.04880000      -0.34880000      -0.46510000
H       -3.90590000      -0.30390000      -2.23160000
H       -4.45400000      -2.61490000      -1.37420000
H       -2.92910000      -2.55630000      -2.26640000
H       -3.28340000      -2.59250000       0.77660000
H       -2.52170000      -3.86530000      -0.18670000
