21
Properties=species:S:1:pos:R:3 gdb_117077=T pbc="F F F"
C       -0.22200000       1.50120000      -0.08930000
C       -0.00610000      -0.01330000       0.00890000
C        0.79830000      -0.38410000       1.26200000
O       -1.24780000      -0.70570000       0.12330000
C        0.80410000      -0.49470000      -1.22100000
O        1.83160000       0.07030000      -1.52910000
C        0.28210000      -1.69350000      -1.98650000
C        1.22460000      -2.14660000      -3.09040000
O        0.60430000      -3.24320000      -3.74650000
H        0.73410000       2.01330000      -0.21180000
H       -0.84530000       1.75150000      -0.95690000
H       -0.72160000       1.86760000       0.81180000
H        0.27750000      -0.02200000       2.15250000
H        0.89820000      -1.47040000       1.34460000
H        1.79490000       0.05950000       1.21580000
H       -1.87740000      -0.30540000      -0.48520000
H        0.07590000      -2.50930000      -1.28420000
H       -0.69910000      -1.44660000      -2.41340000
H        1.41410000      -1.31230000      -3.78020000
H        2.19470000      -2.42810000      -2.65550000
H        1.19050000      -3.53970000      -4.44860000
