8
Properties=species:S:1:pos:R:3 gdb_789=T pbc="F F F"
O        0.11520000       1.31350000      -0.09010000
C        0.06580000      -0.01560000      -0.07150000
N       -0.05190000      -0.71680000      -1.17120000
O       -0.06170000      -2.03760000      -0.67630000
C        0.05100000      -1.95060000       0.64310000
N        0.13460000      -0.73950000       1.09710000
H        0.20200000       1.60890000       0.82470000
H        0.06190000      -2.87420000       1.20340000
