15
Properties=species:S:1:pos:R:3 gdb_50258=T pbc="F F F"
O        0.00330000       0.09180000      -0.27720000
C        0.04730000       1.28700000      -0.08330000
N        1.19210000       1.96640000       0.19620000
C        2.58210000       1.51160000       0.07640000
C        3.01430000       3.00550000      -0.00590000
N        2.96390000       3.60680000      -1.33520000
C        1.61870000       3.93690000      -1.30360000
O        0.86940000       4.39530000      -2.11760000
C        1.50940000       3.39910000       0.15680000
H       -0.83990000       1.95020000      -0.08740000
H        2.93510000       0.98710000       0.96970000
H        2.78380000       0.90230000      -0.80910000
H        3.81100000       3.35850000       0.64550000
H        3.56310000       3.45540000      -2.13550000
H        1.08850000       4.02740000       0.94100000
