19
Properties=species:S:1:pos:R:3 gdb_96764=T pbc="F F F"
C       -0.28530000       1.34930000      -0.04730000
N       -0.17130000      -0.09790000      -0.10630000
C        0.50740000      -0.66040000      -1.00740000
N        1.31460000      -0.30770000      -2.09620000
C        1.48470000       0.88850000      -2.88040000
C        1.55740000      -1.68800000      -2.53950000
C        0.78320000      -2.12370000      -1.28430000
C        0.94670000      -3.24540000      -0.36370000
O       -0.18050000      -3.14790000      -1.24910000
H        0.69020000       1.84450000       0.07050000
H       -0.77080000       1.77480000      -0.93750000
H       -0.89640000       1.62360000       0.81710000
H        1.23610000       1.76400000      -2.28060000
H        2.52730000       0.98450000      -3.20700000
H        0.84760000       0.89020000      -3.77780000
H        1.05190000      -1.95620000      -3.47640000
H        2.61630000      -1.96500000      -2.59690000
H        1.65600000      -4.03840000      -0.59640000
H        0.72080000      -3.09570000       0.69020000
