15
Properties=species:S:1:pos:R:3 gdb_11390=T pbc="F F F"
O       -0.08860000       1.44540000      -0.08750000
C        0.03960000       0.03700000       0.02950000
C       -1.38120000      -0.53150000       0.04190000
N       -2.09130000      -0.25770000      -1.18560000
C       -2.47490000      -1.39510000      -1.86480000
O       -3.02490000      -1.44700000      -2.94420000
C       -2.05520000      -2.52380000      -0.97320000
C       -1.43150000      -2.03890000       0.10080000
H        0.78460000       1.82220000      -0.22850000
H        0.59050000      -0.39460000      -0.81850000
H        0.55620000      -0.24690000       0.95980000
H       -1.90240000      -0.09110000       0.90640000
H       -2.12430000       0.66010000      -1.59620000
H       -2.25390000      -3.55590000      -1.22460000
H       -1.00920000      -2.59610000       0.92740000
