23
Properties=species:S:1:pos:R:3 gdb_53664=T pbc="F F F"
C        0.12670000       1.51670000       0.00270000
C        0.06670000       0.06460000       0.09630000
C        0.02840000      -1.13640000       0.17760000
C       -0.05550000      -2.59030000       0.26180000
C       -1.39630000      -3.15300000      -0.26110000
C       -1.44910000      -4.66330000      -0.17000000
C       -1.85920000      -5.35520000       1.11180000
C       -2.74130000      -5.44780000      -0.11080000
C       -4.10750000      -4.79680000      -0.14400000
H        0.96840000       1.84320000      -0.61840000
H       -0.78770000       1.92630000      -0.44120000
H        0.24770000       1.97690000       0.98980000
H        0.76970000      -3.04180000      -0.30570000
H        0.08490000      -2.91370000       1.30150000
H       -2.21060000      -2.70010000       0.31290000
H       -1.53310000      -2.82930000      -1.30010000
H       -0.64850000      -5.15250000      -0.72210000
H       -1.31220000      -6.23280000       1.43930000
H       -2.20810000      -4.72390000       1.92460000
H       -2.70750000      -6.40220000      -0.63110000
H       -4.13370000      -3.86680000       0.43080000
H       -4.41540000      -4.56190000      -1.16930000
H       -4.86320000      -5.46480000       0.28400000
