13
Properties=species:S:1:pos:R:3 gdb_380=T pbc="F F F"
N        0.07960000       1.49180000      -0.01570000
C        0.01180000       0.03090000      -0.00380000
C        0.78260000      -0.48960000       1.23890000
N        0.31080000       0.04220000       2.51820000
C        0.76100000      -1.95740000       1.25810000
N        0.71460000      -3.11160000       1.24080000
H        0.96030000       1.80450000      -0.41270000
H       -0.65400000       1.87770000      -0.59890000
H       -1.03730000      -0.26860000       0.09190000
H        0.40890000      -0.45320000      -0.90930000
H        1.83360000      -0.18630000       1.12550000
H        0.17370000       1.04140000       2.37480000
H       -0.60620000      -0.34580000       2.72600000
