21
Properties=species:S:1:pos:R:3 gdb_68684=T pbc="F F F"
C        0.04140000       1.50790000       0.09280000
C       -0.03510000      -0.00210000      -0.02630000
C        0.66940000      -0.62380000      -1.24880000
C        0.09810000      -2.05600000      -1.17520000
C        0.78840000      -2.74130000       0.03080000
C        0.51790000      -1.93950000       1.32090000
O        0.60500000      -0.52580000       1.16150000
C       -1.35860000      -1.75420000      -0.83480000
C       -1.43770000      -0.59340000      -0.18330000
H        1.08340000       1.83100000       0.17390000
H       -0.40690000       1.98460000      -0.78390000
H       -0.48910000       1.84910000       0.98680000
H        0.35820000      -0.12300000      -2.17040000
H        1.75810000      -0.57430000      -1.15730000
H        0.23060000      -2.64120000      -2.08910000
H        0.42860000      -3.76670000       0.17630000
H        1.86450000      -2.79970000      -0.16920000
H       -0.47590000      -2.20980000       1.70320000
H        1.24720000      -2.19300000       2.09620000
H       -2.17650000      -2.43950000      -1.02840000
H       -2.32250000      -0.15500000       0.26350000
