19
Properties=species:S:1:pos:R:3 gdb_38610=T pbc="F F F"
C       -0.07880000       1.43260000      -0.04470000
C        1.32940000       0.82680000      -0.04660000
C        2.15870000       0.39700000      -1.25180000
C        1.46520000      -0.88430000      -1.72120000
C        0.94620000      -1.98610000      -0.77050000
C        0.93130000      -1.91580000       0.77180000
O       -0.03310000      -0.89910000       1.12350000
C        0.09050000      -0.03830000       0.02210000
C        0.04190000      -0.88520000      -1.23820000
H       -0.33990000       1.97580000       0.85740000
H       -0.51130000       1.84170000      -0.95370000
H        1.85480000       0.97400000       0.89080000
H        2.16590000       1.12610000      -2.07290000
H        3.20410000       0.24230000      -0.96090000
H        1.69030000      -1.24580000      -2.72130000
H        0.88710000      -2.97240000      -1.21680000
H        0.59530000      -2.86120000       1.20650000
H        1.91090000      -1.65980000       1.19720000
H       -0.85090000      -1.00080000      -1.84110000
