12
Properties=species:S:1:pos:R:3 gdb_3285=T pbc="F F F"
O       -0.09750000       0.14110000       0.35950000
C        0.01340000       1.27420000       0.03060000
O       -0.99550000       2.14670000      -0.34720000
C       -0.05240000       3.22100000      -0.63650000
C        0.22870000       4.13730000       0.56880000
N        1.21830000       3.15090000       1.09730000
C        1.11360000       2.33670000      -0.14500000
H       -0.20460000       3.62750000      -1.63370000
H        0.67090000       5.09180000       0.26090000
H       -0.61790000       4.32640000       1.23490000
H        2.14230000       3.53840000       1.23990000
H        2.02570000       2.07720000      -0.68070000
