22
Properties=species:S:1:pos:R:3 gdb_107970=T pbc="F F F"
C       -0.09220000       1.57090000       0.02580000
C        0.02820000       0.04180000      -0.01240000
C        0.69570000      -0.47080000      -1.26620000
C        0.29650000      -0.32270000      -2.73470000
N        1.57060000      -1.14450000      -2.88650000
C        2.19480000      -0.36360000      -1.70430000
C        2.61370000      -1.65760000      -1.00800000
C        1.21410000      -1.92550000      -1.58110000
C        0.44330000      -3.21190000      -1.62250000
H        0.89370000       2.04560000      -0.01680000
H       -0.67590000       1.94360000      -0.82240000
H       -0.58590000       1.90600000       0.94280000
H        0.59090000      -0.30670000       0.86400000
H       -0.97050000      -0.40810000       0.06860000
H       -0.60600000      -0.83460000      -3.08730000
H        0.36830000       0.67010000      -3.19240000
H        2.76800000       0.54530000      -1.89750000
H        3.43420000      -2.21010000      -1.47540000
H        2.71270000      -1.63410000       0.08050000
H        0.22360000      -3.56360000      -0.60860000
H       -0.50740000      -3.09340000      -2.15280000
H        1.02220000      -3.98750000      -2.13440000
