18
Properties=species:S:1:pos:R:3 gdb_18114=T pbc="F F F"
C        0.03070000       1.41960000       0.14960000
C        1.51690000       1.87390000      -0.04730000
C        2.13730000       0.60880000      -0.55910000
C        3.31840000      -0.00090000      -0.56530000
C        3.16950000      -1.45650000      -0.97630000
C        1.64560000      -1.72030000      -0.77730000
C        1.01880000      -0.33010000      -0.93170000
O       -0.01390000      -0.00000000      -0.00640000
H       -0.36320000       1.65600000       1.14140000
H       -0.61420000       1.90470000      -0.59870000
H        1.58020000       2.70470000      -0.75850000
H        1.97590000       2.20880000       0.88700000
H        4.27100000       0.43660000      -0.28660000
H        3.47020000      -1.61900000      -2.02100000
H        3.79200000      -2.12640000      -0.37270000
H        1.24240000      -2.46720000      -1.46530000
H        1.45920000      -2.05980000       0.24640000
H        0.65720000      -0.15730000      -1.96260000
