13
Properties=species:S:1:pos:R:3 gdb_2406=T pbc="F F F"
O       -0.03520000       1.43420000      -0.04970000
C        0.01810000       0.03460000       0.00500000
C       -0.01310000      -0.66770000       1.42170000
C       -1.49610000      -0.15450000       1.51500000
C       -1.38120000      -0.65350000       0.02610000
C       -0.63280000      -1.83800000       0.65410000
O       -0.59220000      -3.02840000       0.60280000
H        0.84060000       1.77620000       0.15540000
H        0.74460000      -0.36810000      -0.71040000
H        0.75280000      -0.66620000       2.19430000
H       -2.17210000      -0.69980000       2.17400000
H       -1.58900000       0.92430000       1.61300000
H       -2.14050000      -0.63560000      -0.75150000
