18
Properties=species:S:1:pos:R:3 gdb_28326=T pbc="F F F"
N        0.03380000       1.36180000       0.15780000
C       -0.03130000      -0.03080000       0.04550000
C       -1.14580000      -0.84720000       0.02180000
N       -0.62290000      -2.12750000      -0.05970000
C       -1.11400000      -3.49080000      -0.01350000
C        0.16090000      -4.29730000      -0.38710000
C        1.36450000      -3.37350000      -0.04070000
C        0.72470000      -2.02010000      -0.05090000
N        1.13180000      -0.76800000       0.00320000
H        0.94300000       1.69570000      -0.13550000
H       -0.69580000       1.84270000      -0.35090000
H       -2.20230000      -0.64330000       0.03230000
H       -1.48210000      -3.73820000       0.99100000
H       -1.93430000      -3.65030000      -0.72010000
H        0.19940000      -5.25740000       0.13120000
H        0.15380000      -4.50160000      -1.46120000
H        1.77890000      -3.60330000       0.94900000
H        2.18300000      -3.46690000      -0.75910000
