21
Properties=species:S:1:pos:R:3 gdb_93699=T pbc="F F F"
C        0.07480000       1.48930000       0.03710000
C        0.08330000      -0.02270000       0.01340000
O        0.76010000      -0.44980000      -1.14890000
C        0.79540000      -1.87070000      -1.24490000
C        1.49430000      -2.46150000      -0.00790000
C        1.50640000      -3.98260000      -0.03170000
O        2.84930000      -2.02960000       0.01550000
C        0.76520000      -1.90970000       1.22980000
O        0.73170000      -0.48650000       1.17780000
H        1.10210000       1.86170000       0.05460000
H       -0.42690000       1.87310000      -0.85380000
H       -0.44720000       1.84500000       0.92800000
H       -0.94490000      -0.43540000      -0.00570000
H       -0.22690000      -2.27080000      -1.34400000
H        1.36050000      -2.11010000      -2.14900000
H        2.04250000      -4.34050000      -0.91550000
H        2.02190000      -4.36830000       0.85270000
H        0.49090000      -4.38930000      -0.04990000
H        2.82140000      -1.06490000       0.03020000
H       -0.25910000      -2.31230000       1.29120000
H        1.30810000      -2.17770000       2.13940000
