21
Properties=species:S:1:pos:R:3 gdb_123087=T pbc="F F F"
C       -0.04300000       1.45130000      -0.15800000
C        0.09700000      -0.03710000       0.05730000
O        0.28000000      -0.57960000       1.11760000
O       -0.01090000      -0.69980000      -1.11350000
C        0.10630000      -2.13310000      -1.03640000
C       -0.04180000      -2.68510000      -2.44480000
C        0.06800000      -4.21220000      -2.47490000
C       -0.07820000      -4.78330000      -3.87940000
O        0.03910000      -6.19430000      -3.78930000
H        0.04760000       1.96600000       0.79770000
H        0.72860000       1.80530000      -0.84760000
H       -1.01210000       1.67540000      -0.61270000
H        1.07660000      -2.39020000      -0.59850000
H       -0.66690000      -2.52020000      -0.36430000
H       -1.00980000      -2.36610000      -2.85060000
H        0.72850000      -2.23660000      -3.08420000
H        1.03550000      -4.53310000      -2.07000000
H       -0.70190000      -4.66260000      -1.83660000
H       -1.05400000      -4.48890000      -4.30000000
H        0.69930000      -4.35820000      -4.53560000
H       -0.05220000      -6.56180000      -4.67310000
