23
Properties=species:S:1:pos:R:3 gdb_95286=T pbc="F F F"
C       -0.04770000       1.54700000       0.04240000
C        0.11760000       0.02880000      -0.01240000
C        1.03600000      -0.47540000      -1.14400000
C        1.40320000      -1.91180000      -0.72400000
C        1.54620000      -1.83930000       0.80260000
C        2.76920000      -1.06290000       1.32440000
O        1.97610000       0.10300000       1.62230000
C        0.73800000      -0.58380000       1.25990000
C       -0.19090000      -0.69290000       2.45320000
H        0.91140000       2.02110000       0.26860000
H       -0.40940000       1.93600000      -0.91490000
H       -0.76440000       1.84950000       0.81300000
H       -0.86970000      -0.43910000      -0.14040000
H        0.55900000      -0.42730000      -2.12720000
H        1.93430000       0.15150000      -1.18930000
H        0.58820000      -2.59800000      -0.98380000
H        2.30750000      -2.28650000      -1.21490000
H        1.33900000      -2.78260000       1.31050000
H        3.23600000      -1.47710000       2.22750000
H        3.55540000      -0.85140000       0.58760000
H       -0.53480000       0.29820000       2.76700000
H       -1.07050000      -1.29810000       2.20820000
H        0.32100000      -1.15370000       3.30310000
