14
Properties=species:S:1:pos:R:3 gdb_129358=T pbc="F F F"
N       -0.07040000       1.28570000       0.00820000
C       -0.03300000       0.02690000       0.00250000
O       -1.18830000      -0.67440000       0.00840000
C       -1.06290000      -2.09210000       0.00080000
C       -2.44550000      -2.64840000       0.01000000
C       -3.65360000      -2.02970000       0.02210000
O       -4.60620000      -2.95970000       0.02630000
N       -3.94070000      -4.21920000       0.01620000
N       -2.70120000      -4.00010000       0.00710000
H        0.87340000       1.66610000       0.00270000
H        0.86460000      -0.60630000      -0.00700000
H       -0.51970000      -2.43120000      -0.89220000
H       -0.50470000      -2.43940000       0.88130000
H       -3.95240000      -0.99560000       0.02840000
