16
Properties=species:S:1:pos:R:3 gdb_20966=T pbc="F F F"
C       -0.06610000       1.42690000       0.04330000
N        0.24240000       0.01080000      -0.02050000
C        0.06130000      -0.76230000       1.20020000
C        0.09050000      -0.60450000      -1.22870000
C       -0.11780000      -0.12530000      -2.50130000
C       -0.10940000      -1.30210000      -3.28620000
N        0.06950000      -2.39620000      -2.58980000
O        0.19530000      -1.94300000      -1.25370000
H        0.32170000       1.83200000       0.98120000
H        0.42390000       1.95250000      -0.78040000
H       -1.14680000       1.63220000      -0.00480000
H       -0.99920000      -0.88060000       1.47020000
H        0.49870000      -1.75250000       1.07720000
H        0.57250000      -0.25130000       2.02050000
H       -0.26130000       0.89080000      -2.82150000
H       -0.23530000      -1.38940000      -4.35720000
