15
Properties=species:S:1:pos:R:3 gdb_93483=T pbc="F F F"
O       -0.04850000       1.38650000      -0.03470000
C        0.00170000      -0.03210000       0.01090000
C       -1.43310000      -0.53420000      -0.03070000
N       -1.98300000      -0.29630000      -1.35290000
C       -1.27240000      -0.22980000      -2.50720000
O       -1.72190000       0.01000000      -3.59290000
O        0.08610000      -0.51240000      -2.39070000
C        0.75150000      -0.56340000      -1.18980000
N        1.94490000      -0.96410000      -1.10550000
H        0.85770000       1.71210000      -0.07400000
H        0.50760000      -0.39700000       0.91110000
H       -1.45660000      -1.60040000       0.23230000
H       -2.02400000       0.01450000       0.70690000
H       -2.95570000      -0.06090000      -1.45820000
H        2.29760000      -1.24370000      -2.02390000
