20
Properties=species:S:1:pos:R:3 gdb_54265=T pbc="F F F"
C       -0.24400000       1.68700000       0.01140000
C        0.03170000       0.18380000      -0.03200000
C        0.93010000      -0.25460000      -1.20240000
C        1.68580000      -1.45190000      -0.61120000
C        1.87610000      -1.00780000       0.84170000
O        0.73800000      -0.19990000       1.16520000
C       -1.32940000      -0.55190000      -0.10900000
N       -1.66290000      -1.23350000       1.01430000
O       -2.02720000      -0.48650000      -1.10520000
H        0.69810000       2.24190000       0.02880000
H       -0.82330000       1.98140000      -0.86700000
H       -0.81510000       1.94800000       0.90730000
H        0.33610000      -0.49050000      -2.08560000
H        1.62580000       0.55270000      -1.45570000
H        1.06880000      -2.35520000      -0.65800000
H        2.63240000      -1.66230000      -1.11420000
H        1.92710000      -1.84080000       1.55050000
H        2.78960000      -0.40690000       0.95770000
H       -1.04780000      -1.19750000       1.80940000
H       -2.56740000      -1.67000000       1.07190000
