18
Properties=species:S:1:pos:R:3 gdb_72342=T pbc="F F F"
O       -0.09320000       1.37200000      -0.02290000
C        0.00070000      -0.03250000      -0.00650000
C       -1.32260000      -0.65370000      -0.48640000
C       -1.69960000      -1.60470000       0.62870000
C       -0.81500000      -1.64200000       1.62790000
C        0.33640000      -0.71900000       1.37300000
C        1.65140000      -1.25140000       0.73740000
N        1.27610000      -2.06230000      -0.44150000
C        1.33690000      -0.58730000      -0.55970000
H        0.72970000       1.73200000       0.32690000
H       -2.07160000       0.13270000      -0.63750000
H       -1.20230000      -1.18180000      -1.43900000
H       -2.61020000      -2.19410000       0.58950000
H       -0.90280000      -2.26470000       2.51150000
H        0.54310000       0.00050000       2.17270000
H        2.60460000      -1.40270000       1.23020000
H        2.13900000      -2.43140000      -0.84030000
H        1.98040000      -0.10640000      -1.28880000
