25
Properties=species:S:1:pos:R:3 gdb_122443=T pbc="F F F"
C        0.15060000       1.33620000      -0.49530000
C       -0.10370000       0.04350000       0.28370000
C       -1.43900000      -0.59550000      -0.07080000
O       -1.59740000      -1.77320000       0.70290000
C       -2.79000000      -2.44520000       0.45320000
C       -2.88650000      -3.37520000      -0.73780000
C       -2.82330000      -3.93030000       0.67780000
C       -1.54590000      -4.62300000       1.11100000
C       -4.09380000      -4.51980000       1.26000000
H        1.11530000       1.77500000      -0.22470000
H        0.15940000       1.15670000      -1.57610000
H       -0.62310000       2.08460000      -0.29090000
H        0.69350000      -0.68250000       0.08620000
H       -0.08670000       0.23910000       1.36200000
H       -2.26600000       0.10570000       0.13420000
H       -1.48170000      -0.83800000      -1.14500000
H       -3.68230000      -1.87360000       0.71860000
H       -3.82090000      -3.43330000      -1.28690000
H       -1.99430000      -3.47610000      -1.34730000
H       -0.66540000      -4.11310000       0.71640000
H       -1.46020000      -4.63480000       2.20390000
H       -1.53320000      -5.66290000       0.76470000
H       -4.21920000      -5.56310000       0.94680000
H       -4.07130000      -4.50170000       2.35610000
H       -4.98150000      -3.96820000       0.93440000
