13
Properties=species:S:1:pos:R:3 gdb_4448=T pbc="F F F"
N        0.10130000       1.41580000       0.12330000
C       -0.02020000       0.02330000       0.02500000
C       -1.08780000      -0.79740000       0.03220000
O       -2.41180000      -0.49920000       0.12590000
N       -0.61920000      -2.12350000      -0.04520000
C        0.77410000      -2.14170000      -0.02050000
O        1.51320000      -3.10330000       0.02720000
N        1.11840000      -0.79280000      -0.05950000
H        0.40430000       1.84410000      -0.74780000
H       -0.78630000       1.82580000       0.38860000
H       -2.83570000      -0.63520000      -0.73150000
H       -1.14910000      -2.93330000       0.23170000
H        2.05160000      -0.48530000       0.15710000
