17
Properties=species:S:1:pos:R:3 gdb_16647=T pbc="F F F"
C        0.49390000       1.54410000      -0.01540000
C        0.07050000       0.06940000      -0.01220000
C        0.51190000      -0.79590000      -1.21710000
N        1.36440000      -1.92160000      -0.73560000
C        2.58920000      -1.46200000      -0.10270000
C        1.41270000      -1.84900000       0.73790000
C        0.59570000      -0.69150000       1.22180000
O        0.34860000      -0.41870000       2.36950000
H        1.57640000       1.65530000      -0.13750000
H        0.00920000       2.08740000      -0.83220000
H        0.20980000       2.01620000       0.92930000
H       -1.02120000       0.03450000       0.07830000
H       -0.35200000      -1.24000000      -1.71850000
H        1.06900000      -0.22400000      -1.96600000
H        3.43070000      -2.14640000      -0.15630000
H        2.85490000      -0.40890000      -0.16770000
H        1.41970000      -2.76830000       1.31310000
