16
Properties=species:S:1:pos:R:3 gdb_126281=T pbc="F F F"
C        0.06560000       1.58890000       0.05300000
C       -0.03130000       0.05800000      -0.06220000
C       -1.44970000      -0.43250000      -0.10010000
C       -2.02750000      -1.05920000      -1.14810000
C       -3.39870000      -1.47180000      -1.07780000
N       -4.05200000      -2.07860000      -1.98730000
N       -4.06400000      -1.13910000       0.17210000
N       -3.57360000      -0.58140000       1.12320000
O       -2.11050000      -0.17030000       1.03640000
H        1.11300000       1.89870000       0.09980000
H       -0.39650000       2.07610000      -0.81070000
H       -0.43860000       1.94290000       0.95520000
H        0.47570000      -0.29440000      -0.96550000
H        0.46840000      -0.40560000       0.79690000
H       -1.46770000      -1.25730000      -2.05150000
H       -5.00940000      -2.24790000      -1.67420000
