13
Properties=species:S:1:pos:R:3 gdb_35156=T pbc="F F F"
C       -0.05680000      -1.18610000      -0.05190000
C       -0.03280000       0.01360000       0.00300000
C       -0.01130000       1.44180000       0.06400000
C        0.48620000       2.16320000       1.28050000
C        1.35980000       2.19110000       0.02560000
C        2.57000000       1.40930000       0.01770000
N        3.53910000       0.78020000       0.02060000
C        1.39970000       3.41240000      -0.73940000
N        1.39580000       4.39590000      -1.34650000
H       -0.06980000      -2.24740000      -0.10110000
H       -0.77670000       1.95190000      -0.51270000
H        0.01100000       3.09760000       1.55230000
H        0.86350000       1.56520000       2.10030000
