18
Properties=species:S:1:pos:R:3 gdb_32116=T pbc="F F F"
C       -0.03740000       1.41550000      -0.08510000
N       -0.10620000      -0.00820000       0.15040000
C        0.61240000      -0.66250000       1.11120000
C        1.32850000       0.01260000       2.12560000
N        1.99220000      -0.65250000       3.05940000
C        1.96160000      -1.98740000       3.00390000
C        1.26610000      -2.66680000       2.00220000
C        1.23820000      -4.16950000       1.93310000
N        0.59570000      -2.00080000       1.05750000
H        0.98190000       1.76350000      -0.30760000
H       -0.67500000       1.66120000      -0.93620000
H       -0.40630000       1.98080000       0.77910000
H       -0.44860000      -0.60570000      -0.58450000
H        1.35700000       1.09670000       2.17230000
H        2.50730000      -2.52820000       3.77150000
H        0.20880000      -4.53660000       1.99830000
H        1.64160000      -4.51630000       0.97620000
H        1.82080000      -4.61810000       2.74130000
