17
Properties=species:S:1:pos:R:3 gdb_28366=T pbc="F F F"
C       -0.02170000       1.47380000       0.10490000
C       -0.00650000      -0.00990000      -0.06440000
N       -0.03610000      -0.58510000      -1.20680000
C       -0.01650000      -1.97350000      -1.20320000
C        0.03120000      -2.73500000      -0.08880000
C        0.05230000      -4.23230000      -0.09150000
C        0.06410000      -2.05420000       1.19660000
N        0.10960000      -2.64130000       2.31950000
O        0.04200000      -0.65560000       1.12840000
H        0.87350000       1.80450000       0.64180000
H       -0.06130000       1.94930000      -0.87400000
H       -0.88750000       1.77980000       0.70120000
H       -0.04260000      -2.43290000      -2.18710000
H        0.02310000      -4.62180000      -1.11230000
H        0.95070000      -4.60830000       0.40890000
H       -0.79900000      -4.63300000       0.46840000
H        0.12540000      -1.96720000       3.08490000
