18
Properties=species:S:1:pos:R:3 gdb_24213=T pbc="F F F"
C       -0.04560000       1.57920000      -0.04210000
C        1.51640000       1.38510000       0.00560000
C        1.19580000       0.17700000       0.96370000
C       -0.04830000       0.00540000       0.01350000
C        0.65590000      -0.30480000      -1.28830000
C        0.73830000      -1.04910000      -2.42770000
N        1.83950000      -0.57640000      -3.12760000
C        2.45030000       0.46040000      -2.43640000
C        1.72870000       0.64100000      -1.29380000
H       -0.44100000       2.03280000       0.87210000
H       -0.46980000       2.05530000      -0.92910000
H        2.18930000       2.18990000       0.29720000
H        1.91790000      -0.64170000       1.00520000
H        0.91450000       0.50180000       1.97020000
H       -0.92940000      -0.56000000       0.31290000
H        0.14430000      -1.85810000      -2.82240000
H        2.15120000      -0.93490000      -4.01210000
H        3.32500000       0.94650000      -2.83850000
