20
Properties=species:S:1:pos:R:3 gdb_90419=T pbc="F F F"
C       -0.10520000       1.58460000       0.01070000
C        0.07600000       0.07290000      -0.00650000
C        1.16720000      -0.54930000      -0.93830000
C        1.79570000      -1.28000000       0.28360000
C        0.74260000      -0.62060000       1.23150000
C        1.94050000       0.15420000       1.81530000
O        2.11130000       1.03290000       2.62210000
N        2.82230000      -0.51200000       0.98760000
C        4.18860000      -0.20560000       0.64700000
H        0.83460000       2.10230000       0.22560000
H       -0.47430000       1.93910000      -0.95800000
H       -0.82690000       1.88660000       0.77690000
H       -0.88830000      -0.40610000      -0.20120000
H        0.76580000      -1.21880000      -1.70250000
H        1.83770000       0.16630000      -1.42280000
H        1.97880000      -2.35410000       0.22180000
H        0.11000000      -1.16810000       1.92790000
H        4.54180000       0.55500000       1.34770000
H        4.83040000      -1.09000000       0.73080000
H        4.27440000       0.18960000      -0.37400000
