17
Properties=species:S:1:pos:R:3 gdb_43767=T pbc="F F F"
O       -0.42400000       0.18060000      -0.19100000
C       -0.15710000       1.32560000       0.02130000
C       -0.95810000       2.50720000       0.64950000
C        0.14460000       3.42910000       0.08830000
N        1.36220000       3.00700000       0.79710000
C        0.94280000       2.25250000      -0.43510000
C        0.00660000       4.77850000      -0.50460000
C       -1.30810000       5.31470000      -0.93970000
N       -0.64340000       5.86760000       0.25150000
H       -1.93110000       2.59440000       0.15910000
H       -1.07320000       2.50840000       1.73490000
H        2.12550000       3.61760000       0.49960000
H        1.60970000       2.16520000      -1.28400000
H        0.89360000       5.10800000      -1.04490000
H       -1.35430000       5.98650000      -1.79180000
H       -2.18920000       4.69360000      -0.80760000
H       -1.07390000       5.48790000       1.09230000
