22
Properties=species:S:1:pos:R:3 gdb_121293=T pbc="F F F"
C       -0.02950000       1.62330000      -0.07440000
C        0.02210000       0.09440000      -0.00160000
C       -1.37260000      -0.54130000       0.07540000
C       -1.39210000      -2.07590000       0.06700000
C       -0.80080000      -2.68080000       1.33910000
O       -0.87830000      -4.11440000       1.33150000
C       -1.99150000      -4.64230000       0.76720000
N       -2.92440000      -4.06900000       0.13670000
C       -2.81600000      -2.63050000      -0.08920000
H        0.97460000       2.05440000      -0.13190000
H       -0.58770000       1.95750000      -0.95580000
H       -0.52310000       2.04550000       0.80800000
H        0.54790000      -0.29730000      -0.88220000
H        0.62150000      -0.20370000       0.86760000
H       -1.89090000      -0.17880000       0.97510000
H       -1.96940000      -0.18570000      -0.77560000
H       -0.79210000      -2.43500000      -0.78080000
H        0.25900000      -2.44860000       1.46210000
H       -1.33900000      -2.30790000       2.22220000
H       -2.00300000      -5.72010000       0.92130000
H       -3.49920000      -2.11530000       0.60170000
H       -3.19290000      -2.41900000      -1.09680000
