19
Properties=species:S:1:pos:R:3 gdb_36489=T pbc="F F F"
N       -0.01320000      -1.15970000      -0.02220000
C       -0.00040000      -0.00530000       0.03510000
C        0.04030000       1.45340000       0.11340000
C        1.47250000       2.02100000       0.05420000
C        2.22410000       1.67910000      -1.26050000
C        3.19770000       2.85610000      -1.50620000
C        2.51740000       4.04060000      -0.84470000
N        1.07870000       4.15020000      -1.18000000
C        1.49510000       3.54110000       0.10380000
H       -0.54100000       1.87280000      -0.71540000
H       -0.45560000       1.75980000       1.04210000
H        2.03620000       1.64290000       0.91590000
H        2.73060000       0.71350000      -1.20520000
H        1.50430000       1.62450000      -2.08090000
H        4.16140000       2.68200000      -1.01290000
H        3.39540000       3.01410000      -2.57070000
H        3.07450000       4.95130000      -0.64920000
H        0.76920000       5.10410000      -1.01240000
H        1.26440000       4.05560000       1.03190000
