20
Properties=species:S:1:pos:R:3 gdb_8332=T pbc="F F F"
C       -0.92250000       1.10450000      -0.02790000
C        0.14680000       0.03140000       0.10510000
C        1.32770000       0.01920000      -0.90910000
C        2.27200000      -0.34470000       0.25650000
C        2.85730000      -1.76940000       0.38320000
C        4.21930000      -1.05120000       0.41870000
O        3.58660000       0.23910000       0.29770000
C        1.19870000       0.15780000       1.24560000
H       -0.47150000       2.10270000      -0.06510000
H       -1.51100000       0.97040000      -0.94260000
H       -1.61650000       1.08370000       0.81990000
H       -0.32250000      -0.95810000       0.14060000
H        1.28140000      -0.66040000      -1.76490000
H        1.55340000       1.02930000      -1.26710000
H        2.58420000      -2.30430000       1.29510000
H        2.69060000      -2.41830000      -0.47900000
H        4.78480000      -1.14390000       1.35380000
H        4.89140000      -1.25820000      -0.42280000
H        1.38800000       1.20700000       1.49610000
H        1.04580000      -0.40740000       2.16950000
