17
Properties=species:S:1:pos:R:3 gdb_17746=T pbc="F F F"
C       -0.02670000       1.49160000       0.00870000
C       -0.01930000      -0.01290000      -0.05900000
C        0.23250000      -0.81830000      -1.36540000
C       -0.47390000      -1.97990000      -0.62410000
C        0.32120000      -2.22400000       0.67470000
C        0.64940000      -0.82940000       1.07410000
N       -0.61610000      -1.46840000       1.57640000
C       -1.23500000      -0.95080000       0.27160000
H        0.97710000       1.89830000      -0.16380000
H       -0.69240000       1.92030000      -0.74790000
H       -0.36230000       1.84160000       0.99110000
H       -0.37600000      -0.43590000      -2.19250000
H        1.26510000      -0.96260000      -1.69890000
H       -0.93800000      -2.82190000      -1.13260000
H        0.84750000      -3.10960000       1.00970000
H        1.45050000      -0.54050000       1.74490000
H       -2.29030000      -0.68900000       0.21960000
