18
Properties=species:S:1:pos:R:3 gdb_23082=T pbc="F F F"
O       -0.11120000       1.20090000       0.47310000
N       -0.00020000      -0.17900000       0.22770000
C       -1.12950000      -0.70030000      -0.03610000
C       -1.25980000      -2.17530000      -0.35560000
C       -2.67180000      -2.54540000       0.12540000
C       -2.85170000      -2.71040000       1.64800000
O       -3.48320000      -1.41850000       1.76750000
C       -3.43700000      -1.20300000       0.33880000
C       -2.49830000      -0.05590000      -0.03890000
H        0.79120000       1.43620000       0.71340000
H       -1.18720000      -2.31910000      -1.44190000
H       -0.46490000      -2.76910000       0.10240000
H       -3.15100000      -3.30880000      -0.48710000
H       -3.52510000      -3.52200000       1.95140000
H       -1.92840000      -2.77320000       2.23770000
H       -4.44290000      -1.10640000      -0.08290000
H       -2.56370000       0.78010000       0.65980000
H       -2.73410000       0.32650000      -1.04130000
