18
Properties=species:S:1:pos:R:3 gdb_34415=T pbc="F F F"
N       -0.05420000      -1.11000000       0.13280000
C       -0.07530000       0.04560000       0.10690000
C       -0.06160000       1.50400000       0.05090000
C       -0.27670000       2.16330000      -1.33590000
N        0.83140000       3.09880000      -1.03780000
C        1.33830000       2.22480000       0.05680000
C        1.47100000       2.89520000       1.43240000
C        0.17910000       2.45380000       2.17730000
N       -0.82040000       2.10140000       1.15170000
H       -0.08200000       1.45730000      -2.15160000
H       -1.25370000       2.63300000      -1.49780000
H        1.47970000       3.24800000      -1.80210000
H        2.18650000       1.59190000      -0.22110000
H        2.37620000       2.58960000       1.96410000
H        1.49940000       3.97950000       1.29810000
H        0.38130000       1.56410000       2.78450000
H       -0.22690000       3.21780000       2.84390000
H       -1.25840000       2.95000000       0.80860000
