19
Properties=species:S:1:pos:R:3 gdb_32245=T pbc="F F F"
C       -0.02860000       1.37760000       0.11110000
O        0.02430000      -0.03030000       0.00130000
C        0.63300000      -0.57370000      -1.09210000
C        1.21180000       0.17350000      -2.11730000
C        1.81180000      -0.47820000      -3.19630000
C        1.83480000      -1.86430000      -3.25330000
C        1.25170000      -2.60000000      -2.22030000
C        0.64600000      -1.98190000      -1.13160000
C        0.01500000      -2.76910000      -0.01350000
H        0.97530000       1.82010000       0.15060000
H       -0.58270000       1.82960000      -0.72200000
H       -0.55070000       1.59060000       1.04560000
H        1.20130000       1.25530000      -2.08620000
H        2.25950000       0.11200000      -3.98920000
H        2.29990000      -2.37430000      -4.08970000
H        1.26590000      -3.68550000      -2.25830000
H        0.48250000      -2.53840000       0.95000000
H       -1.04780000      -2.52660000       0.09460000
H        0.10780000      -3.84290000      -0.19410000
