16
Properties=species:S:1:pos:R:3 gdb_5623=T pbc="F F F"
C       -0.05500000       1.40930000       0.00740000
N        0.08380000      -0.03440000      -0.07700000
C        0.65810000      -0.67490000       1.02180000
C        1.29830000      -0.16620000       2.11350000
O        1.73910000      -1.17910000       2.91900000
C        1.37230000      -2.34970000       2.32460000
C        0.70850000      -2.10840000       1.16190000
N        0.08540000      -2.98440000       0.25250000
H        0.93930000       1.86790000       0.04450000
H       -0.56220000       1.77890000      -0.88690000
H       -0.61390000       1.74590000       0.89620000
H       -0.77510000      -0.49470000      -0.35450000
H        1.52240000       0.83260000       2.44450000
H        1.64100000      -3.25370000       2.84550000
H        0.26760000      -3.95700000       0.46770000
H        0.38940000      -2.80330000      -0.69920000
