17
Properties=species:S:1:pos:R:3 gdb_115183=T pbc="F F F"
O        0.06890000       1.25730000      -0.42180000
C        0.03590000      -0.15260000      -0.25160000
C       -1.38580000      -0.51490000       0.17390000
C       -2.42040000      -0.17010000      -0.91460000
O       -2.48790000      -1.33100000      -1.78410000
C       -1.97490000      -2.40240000      -1.15290000
O       -1.81440000      -3.47970000      -1.65800000
C       -1.59570000      -2.02990000       0.28060000
O       -0.48740000      -2.76730000       0.72130000
H        0.95160000       1.50600000      -0.71050000
H        0.29650000      -0.67490000      -1.18580000
H        0.73990000      -0.49010000       0.51870000
H       -1.61610000       0.01220000       1.10270000
H       -3.41820000       0.00690000      -0.50060000
H       -2.12140000       0.68430000      -1.52140000
H       -2.47970000      -2.22900000       0.91170000
H       -0.48460000      -3.57900000       0.19260000
