18
Properties=species:S:1:pos:R:3 gdb_17242=T pbc="F F F"
C       -0.19610000       1.48190000       0.15400000
C        0.20940000       0.00880000       0.01130000
C        0.81260000      -0.54090000       1.26150000
O        2.04510000       0.01620000       1.74140000
C        2.11600000      -1.12270000       2.64350000
C        0.99120000      -0.84240000       3.67350000
C        0.04440000      -1.06690000       2.49480000
C        1.08420000      -1.91920000       1.76170000
H        0.66650000       2.09090000       0.43840000
H       -0.59470000       1.87090000      -0.78750000
H       -0.96200000       1.60500000       0.92610000
H       -0.66160000      -0.60470000      -0.24960000
H        0.93010000      -0.10240000      -0.80810000
H        3.13160000      -1.39700000       2.92060000
H        0.90880000      -1.64420000       4.41220000
H        1.01570000       0.13560000       4.16460000
H       -1.03170000      -1.18810000       2.49990000
H        1.05520000      -2.90440000       1.31670000
