18
Properties=species:S:1:pos:R:3 gdb_92419=T pbc="F F F"
C       -0.56590000       1.42790000      -0.02570000
C        0.07320000       0.06440000      -0.12580000
O        1.28020000       0.04590000      -0.94260000
C        2.02180000      -0.64960000       0.06330000
C        2.83530000       0.25690000       1.00930000
N        1.61750000       0.51230000       1.83480000
C        0.85120000      -0.50320000       1.09640000
C        0.28700000      -1.63250000       1.88480000
O        0.47900000      -1.77910000       3.06870000
H       -0.78200000       1.80890000      -1.02850000
H       -1.50900000       1.36590000       0.52790000
H        0.10120000       2.12060000       0.49080000
H       -0.63500000      -0.68100000      -0.51820000
H        2.45820000      -1.58610000      -0.29180000
H        3.62570000      -0.29180000       1.53570000
H        3.25760000       1.15270000       0.54480000
H        1.71650000       0.24440000       2.80920000
H       -0.32520000      -2.35620000       1.30260000
