23
Properties=species:S:1:pos:R:3 gdb_91762=T pbc="F F F"
C       -0.13010000       1.52290000      -0.07620000
C       -0.00530000       0.01140000       0.03770000
O        0.65120000      -0.52510000      -1.12750000
C        1.51530000      -1.60470000      -0.72770000
C        1.02570000      -1.98660000       0.67520000
C        0.78340000      -0.57180000       1.22760000
C        2.14970000       0.10150000       1.48290000
C        3.04720000       0.15920000       0.22460000
C        2.96730000      -1.10880000      -0.64890000
H        0.84130000       2.02180000      -0.08640000
H       -0.65390000       1.78380000      -1.00040000
H       -0.71180000       1.91530000       0.76470000
H       -1.02600000      -0.40540000       0.07820000
H        1.40990000      -2.40950000      -1.46220000
H        0.09590000      -2.56240000       0.62850000
H        1.76180000      -2.56150000       1.24310000
H        0.18080000      -0.56390000       2.14090000
H        2.01320000       1.11430000       1.87870000
H        2.65380000      -0.46790000       2.27430000
H        2.73990000       1.00650000      -0.39420000
H        4.08420000       0.35470000       0.51800000
H        3.58850000      -1.91570000      -0.23960000
H        3.34970000      -0.89050000      -1.65170000
