22
Properties=species:S:1:pos:R:3 gdb_9543=T pbc="F F F"
C       -0.08480000       1.56580000      -0.09890000
C        0.04940000       0.05470000       0.02520000
C        1.04710000      -0.69670000      -0.89770000
C        1.39600000      -1.63330000       0.28780000
C        0.76110000      -0.59650000       1.26720000
C        1.81590000       0.29260000       1.92940000
C       -0.19210000      -1.16890000       2.30700000
O        0.55520000      -1.95110000       3.23020000
H        0.88500000       2.06740000      -0.02060000
H       -0.51590000       1.83380000      -1.07030000
H       -0.73910000       1.98100000       0.67610000
H       -0.94410000      -0.40020000      -0.07860000
H        0.64410000      -1.15340000      -1.80520000
H        1.89110000      -0.06060000      -1.18320000
H        0.82910000      -2.56830000       0.26070000
H        2.44970000      -1.87520000       0.44600000
H        2.54340000       0.66820000       1.20300000
H        1.35840000       1.15830000       2.42220000
H        2.35640000      -0.27910000       2.68810000
H       -0.71930000      -0.34580000       2.81990000
H       -0.95490000      -1.78390000       1.80230000
H       -0.05030000      -2.29930000       3.89060000
