17
Properties=species:S:1:pos:R:3 gdb_60792=T pbc="F F F"
C       -0.08240000       1.53990000       0.11380000
C       -0.03610000       0.01080000      -0.02350000
O        0.79350000      -0.57720000       0.98530000
C       -1.39030000      -0.54900000       0.04060000
C       -2.49580000      -1.00890000       0.14460000
C        0.64210000      -0.41520000      -1.36510000
O       -0.02710000       0.11960000      -2.46580000
C        2.10720000      -0.00590000      -1.38860000
O        2.53980000       0.68020000      -2.28520000
H        0.93450000       1.94180000       0.14500000
H       -0.61640000       1.97600000      -0.73250000
H       -0.59730000       1.82050000       1.03640000
H        0.28890000      -0.60540000       1.80480000
H       -3.47320000      -1.41840000       0.21870000
H        0.62230000      -1.51760000      -1.38060000
H        0.64660000       0.61690000      -2.95890000
H        2.74270000      -0.37570000      -0.56680000
