21
Properties=species:S:1:pos:R:3 gdb_62565=T pbc="F F F"
C       -0.01480000       1.53180000       0.02310000
C        0.04640000       0.01140000       0.06510000
C       -1.17830000      -0.61690000      -0.58840000
C        1.34190000      -0.76110000      -0.24180000
C        2.52910000      -0.06780000       0.34000000
O        3.63080000       0.17540000      -0.06940000
C        1.89400000       0.00620000       1.75120000
C        0.68180000      -0.76040000       1.18260000
C        0.05410000      -1.89460000       1.94540000
H        0.86790000       2.01530000       0.44400000
H       -0.11360000       1.87560000      -1.01230000
H       -0.89080000       1.89310000       0.57470000
H       -1.30390000      -0.22720000      -1.60400000
H       -1.10650000      -1.70460000      -0.66030000
H       -2.08690000      -0.37350000      -0.02600000
H        1.35590000      -1.51410000      -1.02190000
H        2.48330000      -0.60550000       2.44260000
H        1.72800000       0.98640000       2.20530000
H       -0.46960000      -1.51540000       2.83160000
H       -0.67080000      -2.45320000       1.34970000
H        0.81730000      -2.59890000       2.29440000
