19
Properties=species:S:1:pos:R:3 gdb_110336=T pbc="F F F"
C        0.22830000       1.40170000      -0.16680000
C       -0.20870000      -0.03800000       0.12480000
C        0.60660000      -0.66550000       1.24410000
C        0.76110000      -2.11530000       1.52620000
C        2.00280000      -1.25470000       1.07040000
C        2.08860000      -2.14810000      -0.11400000
O        2.98170000      -2.45650000      -0.85940000
C        0.79010000      -2.93870000       0.23190000
O        1.10150000      -4.29610000       0.44510000
H        1.27620000       1.43800000      -0.48170000
H       -0.37850000       1.84330000      -0.96250000
H        0.12530000       2.03450000       0.72170000
H       -1.26740000      -0.05210000       0.41420000
H       -0.13350000      -0.63230000      -0.79090000
H        0.57320000      -0.07310000       2.15840000
H        0.62590000      -2.55970000       2.50330000
H        2.85080000      -0.88740000       1.63590000
H       -0.08360000      -2.83090000      -0.42250000
H        1.77110000      -4.53340000      -0.20910000
