15
Properties=species:S:1:pos:R:3 gdb_77305=T pbc="F F F"
O        0.15100000       1.40660000       0.24360000
C        0.16560000       0.01430000       0.09810000
C       -1.20870000      -0.67340000       0.26710000
C       -2.42130000       0.22590000       0.44160000
C       -3.72380000      -0.51290000       0.19290000
O       -4.62970000      -0.56440000       0.98350000
O       -1.10360000      -1.20300000      -1.10950000
C        0.07030000      -0.53400000      -1.33820000
O        0.69160000      -0.45470000      -2.34740000
H        0.90370000       1.76740000      -0.23860000
H        0.96570000      -0.46340000       0.67950000
H       -1.21420000      -1.51030000       0.96920000
H       -2.43530000       0.64030000       1.45350000
H       -2.34690000       1.05790000      -0.26880000
H       -3.79010000      -1.01160000      -0.79770000
