18
Properties=species:S:1:pos:R:3 gdb_78948=T pbc="F F F"
C        0.00030000       1.49200000      -0.01570000
C       -0.03990000       0.00110000       0.14670000
C       -1.31930000      -0.81350000       0.42630000
O       -2.27230000      -0.97910000      -0.58470000
C       -0.34130000      -1.95650000       0.79660000
C        0.50490000      -2.17460000      -0.47130000
C        1.64370000      -1.36040000       0.00340000
C        0.75210000      -0.87260000       1.17430000
N        0.68430000      -0.75910000      -0.97360000
H        1.02630000       1.84570000      -0.15890000
H       -0.58390000       1.79080000      -0.89290000
H       -0.41920000       1.99270000       0.86260000
H       -1.83830000      -0.43460000       1.31350000
H       -1.78990000      -1.15770000      -1.40100000
H       -0.60790000      -2.80660000       1.42040000
H        0.46440000      -2.96660000      -1.20860000
H        2.71140000      -1.41930000      -0.17060000
H        1.02590000      -0.59490000       2.18790000
