23
Properties=species:S:1:pos:R:3 gdb_121245=T pbc="F F F"
C        0.10580000       1.37800000       0.15180000
O        0.04800000      -0.02680000       0.15090000
C       -1.24430000      -0.52630000      -0.12510000
C       -1.18030000      -2.04490000      -0.06870000
C       -1.01920000      -2.59780000       1.37760000
C       -2.53960000      -2.91300000       1.40420000
C       -2.55620000      -2.78410000      -0.14330000
C       -3.74920000      -2.13600000      -0.81870000
O       -4.85770000      -3.00950000      -0.64470000
H        1.13560000       1.66470000       0.37920000
H       -0.17190000       1.80120000      -0.82720000
H       -0.56070000       1.81580000       0.91260000
H       -1.96560000      -0.13120000       0.61160000
H       -1.58020000      -0.18400000      -1.11980000
H       -0.42990000      -2.37680000      -0.79190000
H       -0.40820000      -3.50370000       1.40380000
H       -0.62890000      -1.89660000       2.11850000
H       -2.85530000      -3.86780000       1.82870000
H       -3.12050000      -2.11830000       1.88290000
H       -2.41140000      -3.77000000      -0.59760000
H       -3.95430000      -1.14970000      -0.37240000
H       -3.53490000      -1.97380000      -1.88850000
H       -5.63220000      -2.59450000      -1.03520000
