19
Properties=species:S:1:pos:R:3 gdb_41501=T pbc="F F F"
C        0.02680000       1.62520000       0.14060000
C        1.57080000       1.56960000      -0.09760000
C        1.48570000       0.06210000       0.00700000
C        2.35150000      -0.94980000       0.13270000
C        1.96840000      -2.32620000       0.36530000
C        0.82040000      -2.76110000       0.94210000
C       -0.25730000      -1.95850000       1.48860000
C       -0.62120000      -0.70890000       1.14840000
C       -0.03450000       0.06690000       0.00600000
H       -0.23440000       1.96380000       1.14650000
H       -0.55060000       2.19870000      -0.58680000
H        1.84970000       1.90930000      -1.10230000
H        2.20970000       2.09040000       0.62190000
H        3.41850000      -0.73980000       0.07650000
H        2.71910000      -3.07650000       0.12690000
H        0.73370000      -3.83160000       1.11510000
H       -0.82510000      -2.44020000       2.28330000
H       -1.40370000      -0.21810000       1.72480000
H       -0.46410000      -0.25080000      -0.95530000
