25
Properties=species:S:1:pos:R:3 gdb_99518=T pbc="F F F"
C        0.00810000       1.63730000       0.00680000
C       -0.02770000       0.10660000      -0.00480000
C        0.66860000      -0.52890000       1.22590000
C       -0.01910000      -0.11610000       2.45170000
C       -0.60990000       0.22950000       3.44150000
C        0.84380000      -2.09080000       1.15960000
C        1.66900000      -2.47300000      -0.08400000
C        1.61770000      -2.55220000       2.40960000
C       -0.51940000      -2.80330000       1.11420000
H        1.03930000       2.00850000       0.01200000
H       -0.48700000       2.04410000      -0.88030000
H       -0.49530000       2.03840000       0.89090000
H       -1.06710000      -0.23540000      -0.04780000
H        0.46440000      -0.25510000      -0.91240000
H        1.68700000      -0.11270000       1.26670000
H       -1.11780000       0.53580000       4.32230000
H        2.61470000      -1.92000000      -0.12220000
H        1.91270000      -3.54030000      -0.05720000
H        1.12990000      -2.28830000      -1.01710000
H        1.07740000      -2.30690000       3.32720000
H        1.77260000      -3.63600000       2.38360000
H        2.60360000      -2.07610000       2.46180000
H       -1.07600000      -2.55960000       0.20400000
H       -0.38010000      -3.88950000       1.13210000
H       -1.13670000      -2.52670000       1.97390000
