17
Properties=species:S:1:pos:R:3 gdb_25644=T pbc="F F F"
C       -0.05890000       1.44770000       0.06970000
C       -0.00340000      -0.00440000       0.03650000
C        0.05980000      -1.20890000       0.01020000
C        0.11120000      -2.62070000      -0.02230000
N        1.18990000      -3.38680000       0.03630000
C        0.74210000      -4.68290000      -0.02950000
C        1.68680000      -5.84010000       0.00940000
C       -0.62980000      -4.70270000      -0.12950000
N       -1.02180000      -3.38720000      -0.12420000
H        0.94430000       1.87140000       0.18710000
H       -0.48510000       1.85400000      -0.85460000
H       -0.67090000       1.80630000       0.90510000
H        2.27200000      -5.83860000       0.93510000
H        1.14920000      -6.79020000      -0.05390000
H        2.39930000      -5.79370000      -0.82110000
H       -1.33950000      -5.51030000      -0.20180000
H       -1.96250000      -3.03550000      -0.18350000
