15
Properties=species:S:1:pos:R:3 gdb_84184=T pbc="F F F"
C       -0.10890000       1.58490000       0.04430000
C        0.02720000       0.05590000      -0.03690000
C        0.81500000      -0.47540000      -1.20350000
C        1.81970000      -1.23590000      -0.73560000
N        1.80620000      -1.29030000       0.67000000
C        0.78110000      -0.51160000       1.18540000
O        0.55250000      -0.32130000       2.35430000
C        2.80950000      -1.93860000      -1.47300000
N        3.62500000      -2.51590000      -2.05750000
H        0.87030000       2.06860000      -0.01080000
H       -0.72660000       1.96430000      -0.77390000
H       -0.57420000       1.85540000       0.99540000
H       -0.97960000      -0.38520000      -0.02520000
H        0.60690000      -0.28710000      -2.24530000
H        2.49900000      -1.74830000       1.24000000
