18
Properties=species:S:1:pos:R:3 gdb_52285=T pbc="F F F"
O        0.06890000       0.05500000       0.61300000
C        0.15750000       1.08200000      -0.00720000
C        1.40160000       1.94960000      -0.06130000
N        1.53400000       2.56980000      -1.37700000
C        2.49290000       3.65480000      -1.42670000
C        2.58700000       4.47460000      -2.74870000
C        2.51870000       5.80760000      -1.94080000
C        2.07480000       4.97100000      -0.73330000
O        1.50520000       5.21370000       0.29160000
H       -0.69230000       1.49320000      -0.59730000
H        1.25370000       2.75460000       0.67120000
H        2.26900000       1.35580000       0.26860000
H        1.78600000       1.86880000      -2.06740000
H        3.50610000       3.37970000      -1.07410000
H        3.47860000       4.31410000      -3.35490000
H        1.69420000       4.32240000      -3.35870000
H        3.49690000       6.27110000      -1.77720000
H        1.81960000       6.57840000      -2.27160000
