19
Properties=species:S:1:pos:R:3 gdb_56179=T pbc="F F F"
C       -0.16720000       1.53520000      -0.18270000
C       -0.06470000       0.03410000      -0.00800000
C       -1.30520000      -0.64710000       0.51310000
O       -1.63930000      -0.05600000       1.78060000
C       -2.88300000      -0.33560000       2.24160000
N       -3.08490000       0.29560000       3.43940000
O       -3.70020000      -1.01170000       1.66220000
C        0.81860000      -0.74210000      -0.91630000
N        1.19460000      -0.54580000       0.49620000
H        0.75770000       1.94550000      -0.60050000
H       -0.98730000       1.79730000      -0.86060000
H       -0.36140000       2.02300000       0.77690000
H       -2.14880000      -0.52310000      -0.17230000
H       -1.12360000      -1.71680000       0.65130000
H       -2.27990000       0.61560000       3.95130000
H       -3.87860000      -0.02050000       3.96990000
H        0.57270000      -1.76610000      -1.18540000
H        1.35360000      -0.19170000      -1.68590000
H        1.90400000       0.18010000       0.56570000
