17
Properties=species:S:1:pos:R:3 gdb_49650=T pbc="F F F"
O        0.06130000      -0.13160000      -0.29570000
C        0.01440000       1.06880000      -0.17260000
C        1.23050000       1.94400000      -0.05520000
C        1.24880000       3.33900000      -0.75000000
O        0.04960000       3.95280000      -0.25910000
C        0.43960000       4.03260000       1.12360000
C        1.63280000       5.01130000       1.06660000
C        2.29570000       3.83720000       0.33120000
C        1.46490000       2.82290000       1.19850000
H       -0.95510000       1.60760000      -0.13370000
H        2.13070000       1.36280000      -0.27240000
H        1.35110000       3.47220000      -1.82510000
H       -0.42750000       4.15270000       1.76970000
H        1.46680000       5.96120000       0.55350000
H        2.09840000       5.16890000       2.04310000
H        3.35880000       3.73620000       0.12430000
H        1.77390000       2.43680000       2.16730000
