19
Properties=species:S:1:pos:R:3 gdb_70845=T pbc="F F F"
C       -0.05170000       1.47610000       0.00420000
C       -0.02550000      -0.02840000      -0.05980000
C        0.27240000      -0.82120000      -1.35970000
C       -0.45790000      -1.97990000      -0.62920000
O       -1.09940000      -3.02320000      -1.28470000
C        0.32100000      -2.25520000       0.68820000
C       -0.65450000      -1.47970000       1.54610000
C        0.63590000      -0.82270000       1.10270000
C       -1.28100000      -0.95310000       0.22180000
H        0.95160000       1.89580000      -0.13920000
H       -0.70210000       1.89810000      -0.76940000
H       -0.41820000       1.82060000       0.97810000
H       -0.32630000      -0.45550000      -2.20080000
H        1.31550000      -0.95580000      -1.66600000
H       -0.43080000      -3.64220000      -1.59880000
H        0.94250000      -3.10390000       0.94570000
H       -1.04760000      -1.68050000       2.53330000
H        1.50420000      -0.55220000       1.69140000
H       -2.31050000      -0.67560000       0.00970000
