23
Properties=species:S:1:pos:R:3 gdb_65568=T pbc="F F F"
O       -0.22690000       1.62760000       0.04100000
C        0.02680000       0.23670000       0.00380000
C       -1.34590000      -0.44080000       0.04900000
C       -2.24770000      -0.09220000      -1.11710000
C       -2.32940000      -0.97900000      -2.33720000
C       -3.49230000      -0.90030000      -1.37910000
C        0.98020000      -0.29250000      -1.11250000
C        1.64430000      -1.21830000      -0.05840000
C        1.01830000      -0.34210000       1.05980000
H        0.61470000       2.08700000      -0.04080000
H       -1.21220000      -1.52810000       0.10460000
H       -1.82330000      -0.13410000       0.98920000
H       -2.32590000       0.97430000      -1.29990000
H       -2.42900000      -0.51420000      -3.31210000
H       -1.74640000      -1.89470000      -2.34270000
H       -3.68170000      -1.76070000      -0.74460000
H       -4.38970000      -0.38040000      -1.69620000
H        0.52860000      -0.74230000      -1.99840000
H        1.66480000       0.49920000      -1.43740000
H        1.22780000      -2.22870000      -0.07460000
H        2.73290000      -1.29730000      -0.07930000
H        1.71090000       0.43330000       1.40400000
H        0.59060000      -0.83870000       1.93530000
