17
Properties=species:S:1:pos:R:3 gdb_82665=T pbc="F F F"
C       -0.05270000       1.48690000       0.00380000
C        0.07490000      -0.02990000       0.06710000
C        1.06910000      -0.63890000      -0.95790000
O        2.31420000       0.03210000      -0.60910000
C        2.26640000      -0.79760000       0.55190000
C        1.52610000      -1.95140000      -0.20390000
C        0.64700000      -2.10190000       1.03070000
O        0.16450000      -3.02160000       1.62480000
C        0.85170000      -0.60610000       1.29230000
H        0.92830000       1.96200000       0.06490000
H       -0.52470000       1.79540000      -0.93600000
H       -0.67410000       1.85710000       0.82500000
H       -0.91300000      -0.49630000      -0.01680000
H        0.84000000      -0.61490000      -2.02250000
H        3.18500000      -0.88190000       1.12680000
H        2.01150000      -2.75310000      -0.75330000
H        0.72560000      -0.14740000       2.26910000
