17
Properties=species:S:1:pos:R:3 gdb_20111=T pbc="F F F"
O       -0.02700000       0.16020000      -0.47770000
C        0.04560000       1.34610000      -0.19950000
C        1.33380000       2.00390000       0.13870000
C        2.35180000       1.18040000       0.92230000
C        2.59340000       1.45660000      -0.51900000
C       -1.18630000       2.19720000      -0.19110000
C       -2.06040000       2.10390000      -1.40740000
N       -2.48070000       1.50340000      -0.15080000
H        1.29390000       3.06820000       0.34010000
H        2.93810000       1.70610000       1.66680000
H        2.03090000       0.18180000       1.19470000
H        2.43620000       0.64260000      -1.21690000
H        3.35350000       2.17730000      -0.79720000
H       -1.13710000       3.13610000       0.35240000
H       -2.61690000       2.98330000      -1.71860000
H       -1.71630000       1.45380000      -2.20700000
H       -2.26830000       0.50480000      -0.18590000
