17
Properties=species:S:1:pos:R:3 gdb_22005=T pbc="F F F"
C       -0.05410000       1.48470000      -0.03640000
C       -0.05260000      -0.02310000       0.04500000
N       -0.07610000      -0.69780000       1.14070000
O       -0.10370000       0.11720000       2.28090000
C       -0.02250000      -0.79300000      -1.19140000
C       -0.01460000      -2.16010000      -1.42330000
C        0.01830000      -2.36330000      -2.82230000
C        0.02980000      -1.12050000      -3.42090000
N        0.00510000      -0.18010000      -2.42870000
H        0.84260000       1.84450000      -0.55420000
H       -0.92750000       1.84040000      -0.59510000
H       -0.07810000       1.92530000       0.95760000
H       -0.11870000      -0.53570000       2.98790000
H       -0.03120000      -2.91240000      -0.65140000
H        0.03200000      -3.31130000      -3.33760000
H        0.05340000      -0.83140000      -4.45920000
H        0.00680000       0.81330000      -2.57800000
