21
Properties=species:S:1:pos:R:3 gdb_103279=T pbc="F F F"
C        0.12590000       1.46040000      -0.08960000
C        0.04980000      -0.04360000       0.07920000
O        1.00960000      -0.72080000      -0.79220000
C        1.74250000      -1.17690000       0.34610000
C        0.73990000      -0.60200000       1.32360000
C        0.93750000      -2.10960000       1.20600000
C       -0.10680000      -3.03470000       0.61750000
C        1.71810000      -2.67460000       2.38430000
O        2.50160000      -3.81300000       2.05810000
H        1.13740000       1.82370000       0.11440000
H       -0.14380000       1.73950000      -1.11250000
H       -0.56960000       1.95580000       0.59730000
H       -0.96950000      -0.40270000      -0.11200000
H        2.82550000      -1.16180000       0.29220000
H        0.88350000      -0.05800000       2.24950000
H       -0.49520000      -2.64570000      -0.32530000
H        0.33050000      -4.01510000       0.39460000
H       -0.94530000      -3.18630000       1.30730000
H        2.42860000      -1.92550000       2.75130000
H        1.02490000      -2.89460000       3.21220000
H        1.90490000      -4.54780000       1.88870000
