19
Properties=species:S:1:pos:R:3 gdb_126587=T pbc="F F F"
C       -0.19170000       1.54000000      -0.04740000
C        0.01950000       0.02440000      -0.00380000
C        0.68970000      -0.51830000      -1.26960000
C        0.90060000      -2.04520000      -1.21520000
C        1.55480000      -2.57910000      -2.44130000
N        2.76890000      -3.02700000      -2.58820000
C        2.79390000      -3.34180000      -3.92430000
N        1.68770000      -3.11310000      -4.57520000
O        0.84570000      -2.59760000      -3.58030000
H        0.76110000       2.06970000      -0.15560000
H       -0.82740000       1.82710000      -0.89200000
H       -0.67090000       1.90010000       0.86790000
H        0.63040000      -0.23750000       0.87000000
H       -0.94620000      -0.47830000       0.13820000
H        0.08190000      -0.27140000      -2.14820000
H        1.66060000      -0.02860000      -1.41460000
H        1.53340000      -2.31380000      -0.36560000
H       -0.06670000      -2.54390000      -1.08380000
H        3.65970000      -3.75380000      -4.42220000
