19
Properties=species:S:1:pos:R:3 gdb_22145=T pbc="F F F"
C       -0.08240000       1.53150000      -0.04280000
C       -0.00440000       0.02780000      -0.04340000
C        0.05110000      -0.72910000       1.25830000
C        1.35850000      -0.48650000       2.03260000
C        1.37380000      -1.25380000       3.36950000
C        2.60290000      -1.03430000       4.12850000
N        3.58040000      -0.84750000       4.71590000
N        0.02310000      -0.68500000      -1.10470000
O       -0.01540000       0.10800000      -2.26180000
H        0.84280000       1.96810000      -0.43490000
H       -0.88660000       1.86640000      -0.70400000
H       -0.25410000       1.92420000       0.96160000
H       -0.79940000      -0.42790000       1.88620000
H       -0.06030000      -1.79570000       1.04110000
H        2.21020000      -0.80390000       1.42260000
H        1.49370000       0.58150000       2.23290000
H        0.52340000      -0.95040000       3.99180000
H        1.26230000      -2.32960000       3.19040000
H       -0.01420000      -0.55400000      -2.96120000
