18
Properties=species:S:1:pos:R:3 gdb_89556=T pbc="F F F"
O        0.79940000       0.45160000      -0.87910000
C        0.01430000      -0.30000000       0.00620000
C        0.14070000      -0.08190000       1.53990000
C       -1.38330000      -0.33810000       1.63900000
C       -1.50970000      -0.02020000       0.12870000
C       -1.90410000      -1.70020000       2.18860000
C       -2.72800000      -0.85250000       3.18940000
O       -3.50000000      -1.06670000       4.08330000
N       -2.22070000       0.30540000       2.64640000
H        0.66400000       1.38520000      -0.68480000
H        0.19860000      -1.34580000      -0.25500000
H        0.81730000      -0.71910000       2.11390000
H        0.37300000       0.96790000       1.75700000
H       -1.71450000       1.04590000      -0.02780000
H       -2.20820000      -0.60600000      -0.47320000
H       -2.50970000      -2.28720000       1.49550000
H       -1.15190000      -2.33840000       2.65600000
H       -2.37920000       1.27670000       2.87370000
