20
Properties=species:S:1:pos:R:3 gdb_18162=T pbc="F F F"
C       -0.02790000       1.62120000      -0.00010000
C        0.02630000       0.10430000       0.20920000
C       -1.33080000      -0.56490000       0.00400000
C       -1.96270000      -0.66030000      -1.42730000
C       -2.18140000      -2.16540000      -1.22230000
C       -0.87380000      -2.85420000      -0.98400000
O        0.32820000      -2.45370000      -1.58570000
C       -1.46340000      -2.08950000       0.15350000
H        0.95350000       2.08050000       0.15470000
H       -0.35240000       1.87100000      -1.01660000
H       -0.73040000       2.09630000       0.69500000
H        0.75590000      -0.34690000      -0.46840000
H        0.37330000      -0.11190000       1.22880000
H       -2.06390000      -0.09020000       0.66720000
H       -2.88990000      -0.09330000      -1.52630000
H       -1.30060000      -0.39950000      -2.25910000
H       -3.07550000      -2.71150000      -1.50100000
H       -0.96330000      -3.93490000      -0.86030000
H        0.26840000      -2.65670000      -2.52550000
H       -1.71010000      -2.59080000       1.08340000
