17
Properties=species:S:1:pos:R:3 gdb_69529=T pbc="F F F"
O       -0.07760000       1.39330000       0.01570000
C       -0.00350000       0.02040000       0.05750000
C       -0.88530000      -0.80270000       0.92270000
C        0.62580000      -0.96300000       1.05020000
C        1.27850000      -1.71330000      -0.15460000
O        2.61260000      -2.08160000      -0.14140000
C        0.30720000      -2.21430000      -1.21820000
C        0.67140000      -0.75020000      -1.12240000
O        1.25240000       0.00280000      -2.13440000
H        0.58630000       1.67880000      -0.62590000
H       -1.31070000      -0.23310000       1.74520000
H       -1.54210000      -1.58560000       0.55500000
H        1.15320000      -0.79340000       1.98030000
H        2.68270000      -2.97960000       0.20230000
H        0.82520000      -2.71000000      -2.03570000
H       -0.68080000      -2.61160000      -1.01030000
H        2.20680000      -0.12900000      -2.08930000
