23
Properties=species:S:1:pos:R:3 gdb_120646=T pbc="F F F"
C        0.15540000       1.25070000       0.30750000
O       -0.01680000      -0.14390000       0.26060000
C       -1.29330000      -0.52040000      -0.21790000
C       -1.35220000      -2.02260000      -0.27580000
C       -1.69150000      -2.85110000       0.94900000
C       -2.63320000      -2.80940000      -0.23260000
C       -3.99080000      -2.14710000      -0.12380000
O       -2.60120000      -3.91730000      -1.09770000
C       -3.26060000      -5.06970000      -0.61240000
H        1.16360000       1.44480000       0.68160000
H        0.05120000       1.71180000      -0.68820000
H       -0.57160000       1.73250000       0.98180000
H       -2.07740000      -0.11400000       0.44280000
H       -1.46330000      -0.08800000      -1.21970000
H       -0.60410000      -2.46050000      -0.92950000
H       -1.12130000      -3.75830000       1.11350000
H       -1.97850000      -2.32470000       1.85410000
H       -3.95550000      -1.26140000       0.51440000
H       -4.35130000      -1.84750000      -1.11340000
H       -4.72820000      -2.82930000       0.31210000
H       -2.89230000      -5.36160000       0.38150000
H       -4.35020000      -4.93810000      -0.55290000
H       -3.04880000      -5.87510000      -1.32000000
