20
Properties=species:S:1:pos:R:3 gdb_78047=T pbc="F F F"
C       -0.10100000       1.29700000       0.27120000
N       -0.02920000      -0.06710000      -0.20230000
C       -1.05790000      -1.10440000      -0.21670000
C        0.03010000      -2.15970000      -0.08670000
C        1.00620000      -0.98530000      -0.03240000
O        2.18710000      -0.82950000       0.13010000
C       -1.03570000      -1.98370000       1.01100000
C       -0.67830000      -1.46830000       2.39120000
C       -2.08670000      -3.08140000       1.01880000
H        0.92380000       1.65740000       0.39310000
H       -0.61150000       1.93820000      -0.45500000
H       -0.62210000       1.37860000       1.23430000
H       -1.87150000      -1.06930000      -0.93170000
H        0.15430000      -3.08400000      -0.63340000
H        0.09700000      -0.70050000       2.36520000
H       -1.56130000      -1.04970000       2.88800000
H       -0.30490000      -2.28810000       3.01470000
H       -1.73210000      -3.95610000       1.57460000
H       -3.00620000      -2.73060000       1.50070000
H       -2.34000000      -3.40830000       0.00540000
