17
Properties=species:S:1:pos:R:3 gdb_133880=T pbc="F F F"
C       -1.39650000       1.39360000       0.57210000
C       -1.61690000       0.11780000      -0.35490000
C       -0.85060000      -0.74370000       0.70110000
C        0.25850000      -1.62940000       0.17820000
C        1.51220000      -0.74790000       0.29250000
O        1.23980000       0.47130000       0.99030000
C       -0.08280000       0.59980000       0.56020000
C       -0.19990000       0.35840000      -0.97030000
C        0.72720000      -0.83550000      -1.02590000
H       -1.96240000       1.41730000       1.50640000
H       -1.40330000       2.36420000       0.07040000
H       -2.54330000      -0.12350000      -0.87470000
H       -1.32750000      -0.97640000       1.65280000
H        0.29570000      -2.70780000       0.24710000
H        2.51740000      -1.11700000       0.44050000
H       -0.04320000       1.19870000      -1.64600000
H        1.14030000      -1.27760000      -1.92200000
