18
Properties=species:S:1:pos:R:3 gdb_91255=T pbc="F F F"
C        0.16760000       1.27270000      -0.19390000
N        0.03660000       0.05390000       0.57600000
C       -1.13040000      -0.88950000       0.50920000
C       -0.12860000      -2.02200000       0.92790000
C        0.33110000      -3.28110000       0.19210000
C        1.83800000      -2.96680000      -0.13220000
O        2.62590000      -3.79150000      -0.53490000
C        2.04060000      -1.50600000       0.00270000
C        0.90230000      -1.01160000       0.52890000
H        1.12030000       1.75150000       0.04720000
H        0.13450000       1.08630000      -1.27850000
H       -0.63740000       1.96350000       0.07050000
H       -1.95000000      -0.64740000       1.19060000
H       -1.50620000      -0.99420000      -0.51640000
H       -0.17360000      -2.17270000       2.00930000
H        0.23300000      -4.20960000       0.75820000
H       -0.17950000      -3.42010000      -0.76710000
H        2.89080000      -0.99040000      -0.41870000
