17
Properties=species:S:1:pos:R:3 gdb_117147=T pbc="F F F"
C       -0.90670000       1.22850000       0.57130000
O       -1.28640000      -0.12790000       0.45810000
C       -0.50270000      -0.84820000      -0.46230000
C       -0.97920000      -2.29530000      -0.56240000
O       -0.36340000      -3.10080000      -1.20620000
C       -2.30120000      -2.67070000       0.16500000
O       -2.84080000      -3.84580000      -0.33450000
C       -2.03110000      -2.78900000       1.66230000
O       -2.17740000      -3.84640000       2.22520000
H       -1.57440000       1.69260000       1.29990000
H        0.13190000       1.32830000       0.91940000
H       -1.00350000       1.75250000      -0.39090000
H       -0.55990000      -0.40910000      -1.47270000
H        0.56090000      -0.85600000      -0.17550000
H       -2.98940000      -1.82240000       0.02800000
H       -2.72960000      -4.50840000       0.36570000
H       -1.69510000      -1.87460000       2.17940000
