19
Properties=species:S:1:pos:R:3 gdb_39194=T pbc="F F F"
C        0.34010000       1.48400000       0.45200000
C        1.39620000       2.07640000      -0.51060000
C        2.22210000       0.86630000      -1.02550000
C        3.27180000       0.39270000      -0.03970000
C        2.98230000      -0.77930000       0.52690000
C        1.67130000      -1.32330000       0.02480000
O        0.53870000      -0.98930000       0.88390000
C        0.09260000       0.04010000      -0.03950000
C        1.21310000      -0.30790000      -1.04580000
H        0.71710000       1.43000000       1.47660000
H       -0.57410000       2.08380000       0.46860000
H        0.89780000       2.55360000      -1.36230000
H        2.01990000       2.84170000      -0.03790000
H        2.66420000       1.08700000      -2.00310000
H        4.14550000       0.99530000       0.19060000
H        3.57420000      -1.27740000       1.28650000
H        1.67280000      -2.39310000      -0.20680000
H       -0.94280000      -0.14570000      -0.34240000
H        0.92990000      -0.67850000      -2.02930000
