19
Properties=species:S:1:pos:R:3 gdb_28788=T pbc="F F F"
C       -0.07720000       1.47290000       0.13030000
C       -0.03700000      -0.01300000       0.00390000
C       -0.06770000      -0.83250000      -1.10500000
C       -0.04590000      -2.20160000      -0.68080000
C        0.00980000      -2.16420000       0.68840000
N        0.08310000      -3.04750000       1.79080000
C       -0.11250000      -2.18410000       2.97860000
C        0.20490000      -0.72840000       2.52840000
N        0.00070000      -0.85430000       1.09890000
H        0.81770000       1.88130000       0.61830000
H       -0.14230000       1.92400000      -0.86280000
H       -0.94440000       1.81930000       0.70800000
H       -0.13260000      -0.48510000      -2.12610000
H       -0.07650000      -3.07970000      -1.30540000
H        0.97500000      -3.53040000       1.82580000
H       -1.16110000      -2.24490000       3.28960000
H        0.50830000      -2.51540000       3.81320000
H       -0.47330000      -0.00220000       2.98510000
H        1.23670000      -0.42770000       2.75960000
