16
Properties=species:S:1:pos:R:3 gdb_45525=T pbc="F F F"
O       -0.12070000      -0.06240000       0.04610000
C       -0.08930000       1.12900000       0.06350000
C       -1.16710000       2.23370000       0.16480000
C       -0.04860000       3.18820000       0.67020000
C        0.06070000       3.22960000       2.19010000
O        1.41910000       3.38970000       2.63100000
C        2.32490000       2.58550000       2.02400000
N        2.22710000       1.96200000       0.92490000
C        1.03920000       2.19570000       0.15000000
H       -1.54700000       2.50960000      -0.82360000
H       -2.01670000       2.02780000       0.82080000
H       -0.02380000       4.18800000       0.23650000
H       -0.49370000       4.05940000       2.63200000
H       -0.31990000       2.29340000       2.62150000
H        3.23650000       2.52930000       2.61550000
H        1.33060000       2.44530000      -0.87930000
