19
Properties=species:S:1:pos:R:3 gdb_82558=T pbc="F F F"
C       -0.17710000       1.52440000      -0.01920000
C        0.03860000       0.01430000      -0.02240000
C        0.96790000      -0.57410000      -1.14730000
C        2.47410000      -0.42750000      -0.70400000
C        1.88790000      -1.38020000       0.34700000
C        1.90890000      -2.27970000       1.58310000
O        0.64610000      -1.67590000       2.00480000
C        0.90550000      -0.52770000       1.14380000
O        1.03560000      -1.94960000      -0.69080000
H        0.76990000       2.06800000       0.07370000
H       -0.65930000       1.85670000      -0.94460000
H       -0.81590000       1.82850000       0.81600000
H       -0.91580000      -0.51340000      -0.09650000
H        0.66510000      -0.45610000      -2.18880000
H        3.12800000      -0.89830000      -1.43850000
H        2.86280000       0.53810000      -0.37050000
H        1.81720000      -3.35320000       1.39950000
H        2.71410000      -2.07380000       2.29860000
H        1.34490000       0.28150000       1.74170000
