19
Properties=species:S:1:pos:R:3 gdb_95970=T pbc="F F F"
O       -0.20750000       1.52540000       0.68160000
C       -0.03500000       0.22610000       0.12780000
C        0.66600000      -0.74210000       1.09540000
O       -0.35050000      -1.36850000       1.87420000
C       -1.62580000      -0.88490000       1.45960000
C       -1.43200000      -0.39160000       0.02950000
C       -2.53840000       0.42340000      -0.66150000
O       -2.64490000      -0.54140000      -1.73130000
C       -1.66010000      -1.39760000      -1.12310000
H        0.66120000       1.89690000       0.86340000
H        0.47330000       0.27970000      -0.84470000
H        1.23050000      -1.51200000       0.55070000
H        1.36740000      -0.20630000       1.74980000
H       -2.34770000      -1.70360000       1.54270000
H       -1.95700000      -0.05650000       2.10320000
H       -3.47410000       0.51150000      -0.09380000
H       -2.24050000       1.41520000      -1.01640000
H       -0.80370000      -1.57830000      -1.78650000
H       -2.08140000      -2.36440000      -0.81790000
