17
Properties=species:S:1:pos:R:3 gdb_25795=T pbc="F F F"
C        0.09170000       1.49160000       0.02030000
C        0.00920000      -0.02540000      -0.00480000
O        1.01770000      -0.72380000      -0.02800000
C       -1.30480000      -0.63240000      -0.00300000
C       -2.60610000      -0.15210000       0.02120000
C       -3.48160000      -1.25760000       0.01450000
C       -2.69040000      -2.40520000      -0.01990000
N       -3.05370000      -3.74420000      -0.11590000
N       -1.39270000      -2.01840000      -0.03080000
H        1.14090000       1.78910000       0.01760000
H       -0.41180000       1.92270000      -0.85140000
H       -0.39940000       1.89350000       0.91270000
H       -2.89090000       0.88870000       0.05300000
H       -4.56050000      -1.24040000       0.03730000
H       -4.02800000      -3.89670000       0.10400000
H       -2.47340000      -4.37260000       0.42540000
H       -0.56630000      -2.59210000      -0.09290000
