14
Properties=species:S:1:pos:R:3 gdb_15307=T pbc="F F F"
O       -0.53170000       0.27760000       0.07700000
C        0.03320000       1.33990000       0.09390000
C        1.42460000       1.58020000      -0.46470000
C        1.45620000       2.78230000      -1.38140000
O        1.24070000       4.05720000      -0.77790000
C        2.53790000       3.79460000      -1.34110000
C        3.64940000       3.69540000      -0.43510000
C        4.59850000       3.62090000       0.29900000
H       -0.43790000       2.24170000       0.54240000
H        2.09970000       1.76330000       0.38080000
H        1.75650000       0.67930000      -0.98890000
H        0.94650000       2.65560000      -2.33800000
H        2.73790000       4.34910000      -2.25720000
H        5.43460000       3.56060000       0.95170000
