21
Properties=species:S:1:pos:R:3 gdb_41599=T pbc="F F F"
C       -0.10310000       1.43600000      -0.15740000
C        1.45200000       1.52530000      -0.01200000
C        1.51200000      -0.00070000       0.12150000
C       -0.01320000      -0.08830000      -0.02130000
C        0.89090000      -0.69230000      -1.06380000
C        0.99870000      -0.19770000      -2.52030000
C        1.14480000      -1.47200000      -3.31320000
C        1.13540000      -2.55910000      -2.54620000
C        0.98120000      -2.23450000      -1.08300000
H       -0.62020000       1.90390000       0.68320000
H       -0.54130000       1.81880000      -1.08500000
H        2.00770000       1.96510000      -0.84680000
H        1.74850000       2.04000000       0.90460000
H        2.16780000      -0.54200000       0.79580000
H       -0.71660000      -0.70770000       0.52580000
H        0.11380000       0.37150000      -2.83540000
H        1.85730000       0.47010000      -2.67280000
H        1.24510000      -1.47090000      -4.39360000
H        1.22670000      -3.57910000      -2.90400000
H        1.83040000      -2.60880000      -0.49440000
H        0.08670000      -2.70890000      -0.65590000
