22
Properties=species:S:1:pos:R:3 gdb_101902=T pbc="F F F"
C        0.06840000       1.31220000      -0.53600000
O        0.02520000      -0.03910000      -0.14250000
C       -1.26660000      -0.51870000       0.22510000
C       -2.15730000      -0.75870000      -0.99640000
C       -1.04140000      -1.79990000       1.02750000
C       -0.22360000      -1.55890000       2.30270000
N        0.01810000      -2.77540000       3.06670000
C       -0.89770000      -3.28680000       3.92770000
O       -1.97590000      -2.78510000       4.17310000
H        1.12020000       1.57070000      -0.68440000
H       -0.46870000       1.49910000      -1.47710000
H       -0.35240000       1.97470000       0.23680000
H       -1.74890000       0.23020000       0.87810000
H       -3.13570000      -1.13820000      -0.68600000
H       -2.32450000       0.16200000      -1.56240000
H       -1.69550000      -1.49290000      -1.66430000
H       -2.00960000      -2.22810000       1.30490000
H       -0.52670000      -2.52910000       0.38950000
H        0.73850000      -1.11040000       2.04760000
H       -0.76050000      -0.86580000       2.95750000
H        0.85900000      -3.30250000       2.89620000
H       -0.54410000      -4.22490000       4.40170000
