19
Properties=species:S:1:pos:R:3 gdb_38197=T pbc="F F F"
C        0.08770000       2.01870000      -0.10040000
C        1.42960000       1.29760000       0.22650000
C        0.62480000       0.45900000       1.30480000
C       -0.52020000       0.71060000       0.32960000
C       -1.18260000      -0.18810000      -0.39960000
C       -1.27930000      -0.03390000      -1.85420000
C       -0.14700000       0.14500000      -2.56840000
C        1.90310000       0.52870000      -0.98690000
C        1.25540000       0.14090000      -2.10730000
H       -0.10480000       2.80500000       0.63820000
H       -0.07320000       2.39660000      -1.10790000
H        2.24300000       1.90900000       0.63050000
H        0.91680000      -0.57640000       1.48270000
H        0.56870000       1.01300000       2.24800000
H       -1.39280000      -1.17230000       0.02070000
H       -2.21930000      -0.17690000      -2.38300000
H       -0.24250000       0.17390000      -3.65360000
H        2.97170000       0.31880000      -0.97980000
H        1.91070000      -0.28920000      -2.86600000
