18
Properties=species:S:1:pos:R:3 gdb_14920=T pbc="F F F"
N        0.02230000      -1.16340000      -0.00670000
C        0.01700000      -0.00810000      -0.01050000
C       -0.00440000       1.45970000       0.02960000
C       -0.77460000       1.96690000       1.27350000
C       -0.74350000       3.50130000       1.31570000
C        0.69600000       4.02710000       1.22040000
C        1.40510000       3.43820000      -0.00920000
N        1.36580000       1.97300000      -0.07990000
H       -0.54300000       1.79980000      -0.86720000
H       -1.80360000       1.59300000       1.25270000
H       -0.29900000       1.55220000       2.17100000
H       -1.33100000       3.89700000       0.47560000
H       -1.22840000       3.85880000       2.22970000
H        0.70390000       5.12200000       1.17050000
H        1.25130000       3.74660000       2.12590000
H        0.93340000       3.82480000      -0.92350000
H        2.45450000       3.74660000      -0.04280000
H        1.92810000       1.57670000       0.66860000
