25
Properties=species:S:1:pos:R:3 gdb_111973=T pbc="F F F"
C       -0.07530000       1.69110000       0.21340000
C        0.04200000       0.16750000       0.09510000
C       -1.31250000      -0.52990000      -0.10490000
C       -1.98250000      -0.29760000      -1.44560000
C       -2.68090000      -1.36190000      -1.83370000
C       -2.59600000      -2.48720000      -0.82220000
C       -2.62920000      -3.89650000      -1.42180000
C       -1.32530000      -2.09150000       0.00090000
C       -0.04300000      -2.74080000      -0.53600000
H        0.90500000       2.15150000       0.37210000
H       -0.50490000       2.13710000      -0.68970000
H       -0.71640000       1.97350000       1.05620000
H        0.71740000      -0.08300000      -0.73130000
H        0.51240000      -0.22320000       1.00670000
H       -1.98460000      -0.14080000       0.67960000
H       -1.92620000       0.64520000      -1.97890000
H       -3.28420000      -1.43030000      -2.73350000
H       -3.46600000      -2.40320000      -0.15000000
H       -1.82790000      -4.05080000      -2.15050000
H       -2.53340000      -4.66400000      -0.64620000
H       -3.58070000      -4.06710000      -1.93690000
H       -1.44520000      -2.39450000       1.04760000
H        0.13260000      -2.48400000      -1.58590000
H        0.83100000      -2.42050000       0.03770000
H       -0.09670000      -3.83070000      -0.46270000
