18
Properties=species:S:1:pos:R:3 gdb_112098=T pbc="F F F"
C       -0.10460000       1.61190000      -0.10320000
C       -0.10600000       0.08330000      -0.08230000
C        0.81360000      -0.53150000      -1.16390000
N        2.19350000      -0.09690000      -0.97990000
C        3.12860000      -0.94160000      -0.92880000
O        3.08490000      -2.29430000      -0.98530000
C        1.80320000      -2.91120000      -0.84810000
C        0.61140000      -2.03900000      -1.22300000
O       -0.44520000      -2.55290000      -1.50170000
H        0.90660000       2.00180000       0.03390000
H       -0.48530000       1.99170000      -1.05770000
H       -0.74170000       2.00870000       0.69290000
H        0.22240000      -0.27850000       0.90040000
H       -1.11440000      -0.30740000      -0.24920000
H        0.47460000      -0.14170000      -2.13470000
H        4.16410000      -0.61820000      -0.83980000
H        1.80020000      -3.81300000      -1.46370000
H        1.67020000      -3.21670000       0.20020000
