21
Properties=species:S:1:pos:R:3 gdb_38443=T pbc="F F F"
C       -0.18810000       1.27100000       0.09080000
C        1.18440000       0.72630000      -0.18160000
C        1.82640000       0.26580000       1.13210000
C        0.63770000      -0.72480000       1.34400000
C        0.97320000      -2.21870000       1.36540000
C       -0.26620000      -2.81210000       2.04860000
C       -0.59310000      -1.72420000       3.08020000
O       -0.11640000      -0.49480000       2.53200000
C        0.00040000      -0.21900000       0.03600000
H       -0.40990000       1.74990000       1.04070000
H       -0.70250000       1.70120000      -0.76250000
H        1.71750000       0.93370000      -1.10070000
H        2.77960000      -0.25500000       1.00670000
H        1.93450000       1.03020000       1.90740000
H        1.16580000      -2.62250000       0.36870000
H        1.86580000      -2.38800000       1.97950000
H       -1.08530000      -2.91750000       1.32920000
H       -0.09020000      -3.78950000       2.50400000
H       -1.66620000      -1.63610000       3.28470000
H       -0.08270000      -1.91610000       4.03550000
H       -0.52590000      -0.83920000      -0.68180000
