19
Properties=species:S:1:pos:R:3 gdb_109399=T pbc="F F F"
O        0.09290000       1.33340000       0.49310000
C       -0.01030000      -0.04900000       0.23110000
C       -1.41030000      -0.55070000      -0.07540000
C       -2.46040000       0.26910000      -0.02960000
C       -3.91410000      -0.05570000      -0.26470000
O       -4.20450000      -1.01080000      -1.27010000
C       -3.72920000      -2.30200000      -1.03230000
O       -2.37520000      -2.47270000      -1.34560000
C       -1.46410000      -2.03960000      -0.35530000
H       -0.13760000       1.79970000      -0.31770000
H        0.65960000      -0.35100000      -0.59250000
H        0.37290000      -0.55190000       1.12990000
H       -2.27280000       1.29700000       0.27330000
H       -4.37110000      -0.37340000       0.69140000
H       -4.44130000       0.85170000      -0.57450000
H       -3.91750000      -2.59590000       0.01820000
H       -4.28040000      -2.95780000      -1.71050000
H       -0.48220000      -2.38500000      -0.69770000
H       -1.66870000      -2.56640000       0.59510000
