18
Properties=species:S:1:pos:R:3 gdb_85547=T pbc="F F F"
O        0.07140000       1.39370000      -0.15390000
C        0.00550000      -0.02140000      -0.06590000
C        0.82310000      -0.54620000       1.13210000
C        0.66900000      -2.04360000       1.33240000
O        1.61100000      -2.79750000       1.39010000
C       -0.76690000      -2.55450000       1.46950000
C       -1.81090000      -1.70070000       0.77150000
N       -2.06410000      -0.35520000       1.32220000
C       -1.43350000      -0.49170000      -0.00660000
H       -0.40270000       1.73750000       0.61320000
H        0.45650000      -0.38420000      -0.99700000
H        1.87940000      -0.30130000       1.01250000
H        0.43950000      -0.05230000       2.03410000
H       -0.78570000      -3.57930000       1.08840000
H       -0.99550000      -2.61080000       2.54240000
H       -2.68000000      -2.25080000       0.41850000
H       -3.04650000      -0.11530000       1.22550000
H       -2.02870000      -0.23450000      -0.87960000
