19
Properties=species:S:1:pos:R:3 gdb_94937=T pbc="F F F"
C       -0.06920000       1.57600000      -0.17790000
C        0.01680000       0.08260000       0.03640000
O       -1.16180000      -0.61550000      -0.28170000
C        1.30020000      -0.67750000      -0.20050000
O        2.47130000       0.09980000      -0.24010000
C        2.96640000       0.24460000       1.09610000
C        1.75690000       0.12080000       2.05840000
O        1.34610000       1.33790000       2.65760000
C        0.72280000      -0.60400000       1.19380000
H        0.91370000       2.04730000      -0.09890000
H       -0.43240000       1.78150000      -1.19240000
H       -0.77140000       2.04150000       0.52120000
H       -1.31010000      -0.52410000      -1.23030000
H        1.31160000      -1.58150000      -0.80370000
H        3.70520000      -0.54280000       1.30410000
H        3.45560000       1.21850000       1.18460000
H        2.02360000      -0.51580000       2.90690000
H        0.99680000       1.91530000       1.97280000
H        0.18410000      -1.44250000       1.61680000
