16
Properties=species:S:1:pos:R:3 gdb_126914=T pbc="F F F"
C        0.10180000       1.50430000      -0.04620000
C       -0.00520000       0.00780000       0.22210000
N       -1.34190000      -0.47560000      -0.12150000
C       -1.63330000      -1.80490000      -0.11670000
C       -2.83430000      -2.47880000      -0.08640000
O       -4.07350000      -1.93200000       0.00260000
N       -2.56380000      -3.79600000      -0.16510000
N       -1.31690000      -4.01810000      -0.23640000
O       -0.66560000      -2.70930000      -0.20620000
H        1.10500000       1.86110000       0.20100000
H       -0.09840000       1.72810000      -1.09780000
H       -0.61050000       2.06910000       0.56610000
H        0.71300000      -0.54280000      -0.39160000
H        0.24000000      -0.21060000       1.27260000
H       -2.11100000       0.10550000       0.18080000
H       -4.70730000      -2.65620000       0.05730000
