25
Properties=species:S:1:pos:R:3 gdb_113918=T pbc="F F F"
C        0.14900000       1.53360000       0.04430000
C        0.07010000       0.00280000       0.11340000
C        0.60120000      -0.51000000       1.45890000
C       -1.36650000      -0.47780000      -0.17520000
C       -1.49720000      -1.98420000      -0.31530000
C       -1.92290000      -2.86900000       0.83300000
C       -2.82950000      -2.70220000      -0.36040000
C       -4.14550000      -1.98210000      -0.23240000
O       -5.11030000      -2.91780000       0.23680000
H        1.17340000       1.88600000       0.20450000
H       -0.18730000       1.90900000      -0.92810000
H       -0.48250000       1.99340000       0.81440000
H        0.71620000      -0.40210000      -0.67980000
H       -0.00960000      -0.13170000       2.28800000
H        0.59100000      -1.60180000       1.50970000
H        1.62970000      -0.17300000       1.62700000
H       -2.02740000      -0.11090000       0.62090000
H       -1.70960000       0.00260000      -1.10220000
H       -0.74540000      -2.41270000      -0.97580000
H       -1.42610000      -3.82130000       0.98350000
H       -2.22540000      -2.37750000       1.75280000
H       -2.88380000      -3.54930000      -1.03900000
H       -4.05260000      -1.13260000       0.46100000
H       -4.44400000      -1.57150000      -1.21110000
H       -5.96770000      -2.48180000       0.24200000
