22
Properties=species:S:1:pos:R:3 gdb_86611=T pbc="F F F"
C       -0.79970000       1.07120000      -0.01500000
C       -0.02060000      -0.22880000      -0.11670000
C        1.37610000      -0.24490000      -0.82370000
O        2.10770000       0.95160000      -0.68180000
C        1.79810000      -1.35800000       0.17940000
C        0.67860000      -0.85720000       1.13060000
N        1.21530000       0.17870000       2.01240000
C        0.42440000       0.52250000       3.19020000
C        1.68270000      -0.26200000       3.32420000
H       -0.17720000       1.87870000       0.37620000
H       -1.15710000       1.38000000      -1.00310000
H       -1.67370000       0.96400000       0.63680000
H       -0.64310000      -1.00860000      -0.57090000
H        1.38990000      -0.49230000      -1.88830000
H        2.12450000       1.14160000       0.26880000
H        1.58880000      -2.36190000      -0.19980000
H        2.82380000      -1.31290000       0.55290000
H        0.10970000      -1.61540000       1.69260000
H        0.39910000       1.57500000       3.45560000
H       -0.51320000      -0.00950000       3.33910000
H        1.58910000      -1.31970000       3.56250000
H        2.58990000       0.21010000       3.68910000
