15
Properties=species:S:1:pos:R:3 gdb_30181=T pbc="F F F"
C       -0.51940000       1.49030000       0.02010000
C        0.23450000       0.18840000       0.01390000
O        1.10320000       0.11290000      -1.18010000
C        2.18090000      -0.52790000      -0.64950000
C        2.18500000      -0.56140000       0.69570000
O        1.05670000       0.06280000       1.19070000
N        3.34190000      -1.03170000       1.21160000
C        4.06540000      -1.29490000       0.13020000
N        3.40520000      -0.97580000      -1.05060000
H        0.18210000       2.32660000       0.05580000
H       -1.13330000       1.56970000      -0.88060000
H       -1.17060000       1.53130000       0.89680000
H       -0.42430000      -0.69250000      -0.03700000
H        5.04020000      -1.75450000       0.12120000
H        3.73500000      -1.14490000      -1.98540000
