20
Properties=species:S:1:pos:R:3 gdb_15435=T pbc="F F F"
C       -0.25090000       1.36010000       0.45640000
C        0.16810000      -0.08370000       0.24220000
O        0.20380000      -0.73330000       1.50610000
C        0.56500000      -2.08100000       1.44370000
C        2.02310000      -2.46890000       1.41800000
C        1.19600000      -2.64160000       2.68050000
C        1.40990000      -1.70020000       3.85190000
O        0.18630000      -1.28830000       4.43610000
H        0.46070000       1.87470000       1.10840000
H       -0.29100000       1.89010000      -0.49980000
H       -1.23980000       1.40910000       0.92130000
H       -0.54290000      -0.60140000      -0.42120000
H        1.15870000      -0.14070000      -0.23310000
H       -0.13800000      -2.70190000       0.88690000
H        2.32100000      -3.34510000       0.85280000
H        2.74840000      -1.66140000       1.42040000
H        0.89840000      -3.65030000       2.95080000
H        1.97570000      -2.20420000       4.64240000
H        2.00360000      -0.83500000       3.52400000
H       -0.28490000      -0.81560000       3.73930000
