21
Properties=species:S:1:pos:R:3 gdb_66339=T pbc="F F F"
C        0.08920000       1.62330000       0.17530000
C        0.01380000       0.08060000       0.09270000
C        0.57020000      -0.43030000      -1.24770000
C        0.87900000      -1.93190000      -1.21230000
C        1.90360000      -2.26500000      -0.11960000
C        1.60200000      -1.55100000       1.16980000
C        0.75760000      -0.52430000       1.26980000
C       -1.46140000      -0.28890000       0.26150000
O       -2.14630000      -0.84150000      -0.55990000
H        1.13450000       1.94620000       0.18220000
H       -0.41110000       2.08510000      -0.68210000
H       -0.38390000       1.99980000       1.08920000
H       -0.15210000      -0.21270000      -2.03970000
H        1.48680000       0.12730000      -1.47750000
H       -0.05020000      -2.47960000      -1.02450000
H        1.24810000      -2.26200000      -2.18890000
H        1.93660000      -3.34710000       0.05790000
H        2.91830000      -1.99420000      -0.44960000
H        2.12060000      -1.89770000       2.06120000
H        0.57880000      -0.06270000       2.23920000
H       -1.88470000       0.01080000       1.24920000
