23
Properties=species:S:1:pos:R:3 gdb_58254=T pbc="F F F"
C        0.01140000       0.78600000       1.27080000
C       -0.23360000       0.37490000      -0.17590000
O        0.89700000      -0.30930000      -0.73430000
C       -1.50440000      -0.46920000      -0.41130000
O       -1.59860000      -0.74870000      -1.80280000
C       -1.54450000      -1.74540000       0.40940000
C       -2.28790000      -1.82420000       1.72660000
C       -2.80530000      -2.57040000       0.52210000
C       -4.09770000      -2.17680000      -0.16060000
H        0.90550000       1.41210000       1.33810000
H       -0.83740000       1.35370000       1.66520000
H        0.15000000      -0.08930000       1.91470000
H       -0.33620000       1.26940000      -0.80040000
H        1.18460000      -0.97270000      -0.09760000
H       -2.37330000       0.15190000      -0.16470000
H       -0.70040000      -0.98100000      -2.07530000
H       -0.62790000      -2.32980000       0.34600000
H       -1.84540000      -2.37780000       2.54790000
H       -2.84030000      -0.94230000       2.03900000
H       -2.63350000      -3.64390000       0.53770000
H       -4.29990000      -1.10610000      -0.06750000
H       -4.06560000      -2.41240000      -1.22860000
H       -4.94570000      -2.70870000       0.28450000
