20
Properties=species:S:1:pos:R:3 gdb_12098=T pbc="F F F"
C       -1.80050000       0.18500000       1.73650000
N       -0.82800000      -0.68730000       1.09660000
C       -0.08140000      -0.17280000      -0.04260000
C        0.60830000      -0.42910000       1.25560000
C        1.20080000       0.66650000       2.12020000
C        1.21630000       2.09150000       1.60240000
C        1.17440000       0.42670000       3.59330000
N        2.43890000       0.31610000       2.85110000
H       -1.54960000       1.25570000       1.71490000
H       -2.76460000       0.05520000       1.23460000
H       -1.92270000      -0.11420000       2.78220000
H        0.04460000      -0.85150000      -0.88300000
H       -0.23570000       0.86730000      -0.32590000
H        1.16900000      -1.36170000       1.33850000
H        0.20950000       2.50030000       1.47370000
H        1.75650000       2.72860000       2.30690000
H        1.72920000       2.14720000       0.63660000
H        1.11600000       1.26810000       4.27920000
H        0.69830000      -0.48250000       3.95190000
H        2.66780000      -0.66470000       2.70550000
