23
Properties=species:S:1:pos:R:3 gdb_60105=T pbc="F F F"
C        0.10800000       1.52090000      -0.06210000
C       -0.03650000      -0.00070000       0.00500000
C       -1.49030000      -0.44860000      -0.08560000
O        0.64570000      -0.65310000      -1.07620000
C        2.01620000      -0.73170000      -0.95310000
C        2.95490000       0.30890000      -1.50760000
C        3.00270000      -1.10590000      -2.04570000
C        3.76990000      -2.00060000      -1.06460000
C        2.73860000      -1.63700000       0.05730000
H        1.15380000       1.82750000       0.01360000
H       -0.29580000       1.89900000      -1.00700000
H       -0.44260000       1.98980000       0.76000000
H        0.39050000      -0.35870000       0.95470000
H       -1.92600000      -0.12770000      -1.03730000
H       -1.55950000      -1.53810000      -0.02890000
H       -2.08020000      -0.01630000       0.72810000
H        2.47580000       1.02290000      -2.16890000
H        3.78280000       0.70960000      -0.92420000
H        2.81820000      -1.31890000      -3.09120000
H        3.74060000      -3.06020000      -1.32640000
H        4.81000000      -1.71360000      -0.87770000
H        3.12800000      -1.15990000       0.96250000
H        2.12800000      -2.49720000       0.34170000
