18
Properties=species:S:1:pos:R:3 gdb_95397=T pbc="F F F"
C       -0.01080000       1.43940000       0.02470000
N        0.01890000      -0.00660000      -0.10320000
C       -1.24160000      -0.74390000      -0.04000000
C       -1.11400000      -2.07240000      -0.77890000
N        0.04670000      -2.85320000      -0.38410000
C        1.07680000      -2.19280000      -0.01020000
N        2.22680000      -2.79310000       0.41070000
C        1.19580000      -0.67230000       0.01720000
O        2.29220000      -0.13640000       0.11490000
H        1.01320000       1.80810000      -0.01740000
H       -0.59670000       1.87950000      -0.78930000
H       -0.46270000       1.74150000       0.97880000
H       -1.52710000      -0.91530000       1.00940000
H       -2.02340000      -0.12670000      -0.49470000
H       -2.01670000      -2.66600000      -0.59710000
H       -1.07860000      -1.88790000      -1.86380000
H        2.33890000      -3.76900000       0.18960000
H        3.04320000      -2.20020000       0.40720000
