15
Properties=species:S:1:pos:R:3 gdb_31679=T pbc="F F F"
C        0.03890000       1.36820000       0.00810000
O       -0.01170000      -0.06440000       0.00380000
C       -1.24070000      -0.57770000       0.01050000
N       -2.38190000       0.04580000       0.02030000
C       -3.33510000      -0.96860000       0.02350000
C       -4.77750000      -0.74950000       0.03390000
O       -5.33610000       0.32270000       0.04130000
C       -2.72450000      -2.20130000       0.01540000
N       -1.37490000      -1.94320000       0.00710000
H        1.09830000       1.62420000       0.00110000
H       -0.46220000       1.77140000      -0.87580000
H       -0.44900000       1.76570000       0.90190000
H       -5.35680000      -1.70310000       0.03500000
H       -3.11890000      -3.20400000       0.01500000
H       -0.62010000      -2.60900000      -0.00030000
