15
Properties=species:S:1:pos:R:3 gdb_19889=T pbc="F F F"
C       -0.20790000      -1.30770000      -0.15790000
C        0.02820000      -0.14100000       0.01670000
C        0.12940000       1.29060000       0.10520000
C        0.50090000       2.17590000       1.28310000
C        1.75030000       1.71510000       2.08440000
N        2.24890000       0.44500000       1.51130000
C        2.57150000       1.73290000       0.85740000
C        1.34810000       2.19420000       0.01720000
H       -0.35690000      -2.35230000      -0.27230000
H       -0.68960000       1.76620000      -0.43600000
H       -0.18230000       2.93250000       1.64800000
H        1.98560000       2.01500000       3.09680000
H        3.06590000       0.16580000       2.05400000
H        3.59290000       2.04980000       0.69500000
H        1.41460000       2.96700000      -0.73820000
