18
Properties=species:S:1:pos:R:3 gdb_117428=T pbc="F F F"
C       -0.08090000       1.38080000      -0.13200000
N       -0.20460000       0.00750000       0.35610000
H       -1.09050000      -0.09920000       0.84090000
H        0.05810000      -1.76170000      -0.38440000
C        0.88490000      -0.42980000       1.23210000
C        0.95670000      -1.94830000       1.22590000
O        0.47840000      -2.50830000       0.09770000
N        1.45670000      -2.58240000       2.20150000
C        1.52860000      -4.03260000       2.07930000
C        1.53700000      -4.66630000       3.40410000
N        1.53790000      -5.19290000       4.43190000
H        0.81710000       1.46430000      -0.75210000
H       -0.94560000       1.62220000      -0.75570000
H       -0.01140000       2.13060000       0.67070000
H        1.82270000      -0.04570000       0.81150000
H        0.82370000      -0.07360000       2.26700000
H        0.70030000      -4.45780000       1.49690000
H        2.45240000      -4.32690000       1.56200000
