22
Properties=species:S:1:pos:R:3 gdb_99843=T pbc="F F F"
C        0.04470000       1.54790000      -0.01280000
C        0.01070000       0.01310000       0.05030000
C        0.81280000      -0.47270000       1.26880000
C       -1.44920000      -0.55070000      -0.00090000
C       -2.22380000      -0.03290000      -1.23510000
C       -1.44610000      -2.11050000      -0.04650000
O       -2.74290000      -2.66450000      -0.10300000
C       -2.18310000      -0.16690000       1.21640000
N       -2.77380000       0.08750000       2.17820000
H        1.08000000       1.89930000       0.02870000
H       -0.39850000       1.93830000      -0.93170000
H       -0.48910000       1.98760000       0.83700000
H        0.49510000      -0.37480000      -0.85640000
H        0.94720000      -1.55690000       1.28570000
H        1.81020000      -0.02320000       1.25690000
H        0.32620000      -0.17580000       2.20400000
H       -1.61980000      -0.19070000      -2.13470000
H       -3.15510000      -0.59100000      -1.34200000
H       -2.45960000       1.02930000      -1.15660000
H       -0.93850000      -2.41880000      -0.96660000
H       -0.88420000      -2.51160000       0.80430000
H       -3.17210000      -2.50440000       0.74560000
