24
Properties=species:S:1:pos:R:3 gdb_122527=T pbc="F F F"
C       -0.22740000       1.60410000      -0.35240000
C       -0.49450000       0.10070000      -0.39530000
N        0.46050000      -0.54920000      -1.28590000
C        1.72110000      -1.00570000      -0.70930000
C        0.71380000      -1.98980000      -1.19900000
C       -0.00480000      -2.92850000      -0.24880000
C       -1.35540000      -3.41170000      -0.79320000
C       -2.04460000      -4.40570000       0.13170000
O       -3.27410000      -4.78330000      -0.46890000
H        0.76590000       1.81200000       0.05910000
H       -0.27020000       2.02860000      -1.35920000
H       -0.96700000       2.11160000       0.27470000
H       -0.47200000      -0.30150000       0.63150000
H       -1.50060000      -0.08510000      -0.79000000
H        2.62240000      -0.78910000      -1.27760000
H        1.84040000      -0.92720000       0.37230000
H        0.88610000      -2.43260000      -2.18090000
H        0.64840000      -3.79530000      -0.07620000
H       -0.14110000      -2.45720000       0.73100000
H       -2.02800000      -2.56140000      -0.95320000
H       -1.21650000      -3.88590000      -1.77240000
H       -1.39220000      -5.28080000       0.28990000
H       -2.20910000      -3.94290000       1.11930000
H       -3.71360000      -5.41010000       0.11280000
