17
Properties=species:S:1:pos:R:3 gdb_76054=T pbc="F F F"
C       -0.21410000       1.48430000      -0.07810000
N        0.02340000       0.04470000       0.00260000
C        1.37270000      -0.47910000      -0.28430000
C        2.47120000       0.41550000      -0.55520000
N        3.34820000       1.13900000      -0.77090000
C        0.78910000      -0.47710000       1.09590000
C        1.32720000       0.20870000       2.35400000
O        0.98540000      -0.95450000       3.13740000
C        0.40510000      -1.63870000       2.00510000
H        0.63080000       2.09890000       0.26110000
H       -0.43760000       1.74610000      -1.11530000
H       -1.08960000       1.71950000       0.53320000
H        1.39030000      -1.39750000      -0.86550000
H        2.40150000       0.42440000       2.36870000
H        0.77380000       1.10110000       2.67340000
H       -0.67650000      -1.78810000       2.11240000
H        0.89220000      -2.60060000       1.80650000
