21
Properties=species:S:1:pos:R:3 gdb_92676=T pbc="F F F"
C       -0.94580000       0.99850000      -0.02530000
C        0.12060000      -0.09440000       0.01770000
C        1.19270000       0.00660000      -1.09810000
C        2.38770000      -0.66970000      -0.48290000
C        2.25320000      -0.81790000       0.84420000
C        3.19900000      -1.38330000       1.73280000
C        3.96560000      -1.85910000       2.53270000
C        0.93780000      -0.21800000       1.34170000
C        1.19130000       1.09800000       2.09570000
H       -0.50910000       1.99650000       0.08260000
H       -1.48220000       0.97490000      -0.98000000
H       -1.68640000       0.86900000       0.77120000
H       -0.37890000      -1.06150000      -0.12010000
H        0.86620000      -0.46360000      -2.03300000
H        1.42410000       1.05350000      -1.34930000
H        3.26250000      -0.97090000      -1.04750000
H        4.65360000      -2.28040000       3.22270000
H        0.43800000      -0.90800000       2.03160000
H        1.66660000       1.84470000       1.45080000
H        0.25990000       1.52280000       2.48200000
H        1.85870000       0.92160000       2.94470000
