19
Properties=species:S:1:pos:R:3 gdb_30838=T pbc="F F F"
C        0.32780000       1.18510000      -0.29250000
N       -0.37060000       0.06410000       0.34480000
C        0.38980000      -0.74590000       1.17730000
C        0.77200000      -2.04630000       1.09020000
C        0.41320000      -2.99580000      -0.00780000
C        1.58200000      -2.32040000       2.25120000
C        1.62650000      -1.15890000       2.96240000
N        2.16790000      -0.81700000       4.19600000
O        0.92300000      -0.18480000       2.34940000
H        1.15050000       0.79290000      -0.89730000
H       -0.36630000       1.70800000      -0.95760000
H        0.74340000       1.91280000       0.42020000
H       -1.22320000       0.38320000       0.79300000
H        1.30510000      -3.37220000      -0.52260000
H       -0.12500000      -3.86990000       0.37750000
H       -0.22350000      -2.49780000      -0.74290000
H        2.05350000      -3.25490000       2.51250000
H        2.92520000      -1.42850000       4.46870000
H        2.46180000       0.15120000       4.23460000
