18
Properties=species:S:1:pos:R:3 gdb_53266=T pbc="F F F"
C        0.07880000       1.50080000       0.04140000
C        0.04700000       0.04600000       0.03240000
C        0.02440000      -1.15860000       0.03960000
C       -0.01290000      -2.59330000       0.00760000
N       -0.57350000      -3.30180000       1.19840000
C       -1.29540000      -3.34580000      -0.05370000
C       -2.71310000      -2.84360000      -0.28230000
O       -2.97390000      -3.96160000      -1.16770000
C       -1.67400000      -4.53760000      -0.92890000
H        1.10740000       1.87560000       0.08030000
H       -0.39350000       1.91720000      -0.85520000
H       -0.45250000       1.89980000       0.91240000
H        0.83320000      -3.06840000      -0.48700000
H       -0.06150000      -4.16930000       1.34900000
H       -3.35440000      -2.85840000       0.60720000
H       -2.80660000      -1.87810000      -0.79230000
H       -1.09970000      -4.67330000      -1.85420000
H       -1.73820000      -5.49900000      -0.39890000
