15
Properties=species:S:1:pos:R:3 gdb_25194=T pbc="F F F"
N       -0.02400000       1.12980000      -0.85920000
C       -0.03360000       0.12960000      -0.07050000
N        1.15840000      -0.45750000       0.39230000
C        1.47090000      -1.50340000       1.21630000
C        0.65460000      -2.35060000       1.88320000
C       -0.77210000      -2.34660000       1.87980000
C       -1.63780000      -1.52710000       1.23470000
C       -1.42130000      -0.39280000       0.34190000
O       -2.37890000       0.19520000      -0.12030000
H        0.92580000       1.42800000      -1.09470000
H        1.96850000       0.01680000       0.01890000
H        2.54400000      -1.62940000       1.31600000
H        1.14700000      -3.10860000       2.48040000
H       -1.22760000      -3.12280000       2.49070000
H       -2.70020000      -1.70230000       1.37270000
