18
Properties=species:S:1:pos:R:3 gdb_51488=T pbc="F F F"
O       -0.01180000      -0.22250000       0.04640000
C       -0.00290000       0.96150000      -0.16580000
C        1.20020000       1.86200000       0.02670000
C        1.36910000       2.83640000      -1.14820000
C        2.55890000       3.77250000      -1.06660000
C        3.26680000       3.72830000      -2.19500000
C        2.68950000       2.71620000      -3.12560000
C        2.71840000       1.31570000      -2.61410000
N        1.50730000       2.13210000      -2.44940000
H       -0.91910000       1.49140000      -0.51620000
H        1.02950000       2.44920000       0.94050000
H        2.08460000       1.24150000       0.19110000
H        0.44050000       3.42580000      -1.21020000
H        2.77810000       4.37680000      -0.19390000
H        4.14830000       4.31390000      -2.42510000
H        2.61590000       2.92200000      -4.18990000
H        2.58980000       0.47850000      -3.29430000
H        3.35830000       1.12140000      -1.75750000
