14
Properties=species:S:1:pos:R:3 gdb_19260=T pbc="F F F"
O        0.51590000       1.22710000       0.07330000
C        0.14430000      -0.10350000      -0.03750000
C       -1.34700000      -0.48610000       0.01610000
O       -1.97520000       0.03750000      -1.16270000
C       -1.26500000      -1.18720000      -1.27640000
C        0.23660000      -0.82880000      -1.45280000
C        0.51980000       0.01480000      -2.66100000
O        0.35910000       1.21350000      -2.69980000
H        0.22310000       1.66670000      -0.73990000
H        0.71120000      -0.67580000       0.70420000
H       -1.98500000      -0.65900000       0.87500000
H       -1.79230000      -2.05500000      -1.65310000
H        0.87720000      -1.71470000      -1.43920000
H        0.86770000      -0.53270000      -3.56410000
