15
Properties=species:S:1:pos:R:3 gdb_56090=T pbc="F F F"
C       -0.15000000       1.46060000       0.01210000
C        0.05290000      -0.03300000       0.00160000
O        1.10910000      -0.60990000      -0.01130000
O       -1.14170000      -0.67680000       0.00850000
C       -1.04230000      -2.11180000      -0.00060000
C       -2.37620000      -2.67950000       0.00930000
C       -3.46510000      -3.20030000       0.01700000
C       -4.78530000      -3.77790000       0.02630000
O       -5.01070000      -4.96560000       0.02400000
H        0.81960000       1.95660000       0.00560000
H       -0.73330000       1.76490000      -0.86140000
H       -0.71630000       1.75480000       0.90010000
H       -0.48720000      -2.43920000      -0.88720000
H       -0.46980000      -2.44920000       0.87100000
H       -5.60320000      -3.02950000       0.03620000
