17
Properties=species:S:1:pos:R:3 gdb_49622=T pbc="F F F"
O       -0.36210000       0.72460000      -0.85220000
C        0.24500000       0.98520000       0.15550000
C        1.47850000       1.81860000       0.18930000
C        1.60930000       2.83100000       1.28040000
N        2.35660000       1.53120000       1.35320000
C        3.63970000       2.29090000       1.09070000
C        2.88090000       3.62340000       1.08020000
C        3.08610000       4.91470000       0.39120000
N        3.30910000       4.78090000       1.84790000
H       -0.07890000       0.62040000       1.15520000
H        1.92010000       2.02980000      -0.78190000
H        0.79460000       3.07240000       1.95840000
H        4.30680000       2.19890000       1.94960000
H        4.15610000       1.97820000       0.17840000
H        3.98760000       5.08610000      -0.19080000
H        2.20760000       5.44970000       0.03890000
H        2.52960000       5.18040000       2.36600000
