16
Properties=species:S:1:pos:R:3 gdb_133114=T pbc="F F F"
C        0.01610000       1.45880000       0.04880000
N       -0.08190000       0.02010000      -0.09480000
C        0.56780000      -0.64810000      -1.09640000
N        1.12390000       0.04110000      -2.09350000
C        1.71700000      -0.63930000      -3.08450000
C        1.80220000      -2.02010000      -3.13810000
C        1.23280000      -2.75330000      -2.08720000
C        0.62000000      -2.05900000      -1.07740000
F        0.05550000      -2.69510000      -0.03280000
H        1.03420000       1.79450000       0.28980000
H       -0.27990000       1.94650000      -0.88240000
H       -0.65980000       1.77630000       0.84590000
H       -0.29580000      -0.52420000       0.72350000
H        2.15030000      -0.03150000      -3.87480000
H        2.29810000      -2.51770000      -3.96220000
H        1.26260000      -3.83640000      -2.05140000
