18
Properties=species:S:1:pos:R:3 gdb_39760=T pbc="F F F"
C        0.01410000       1.52590000       0.01360000
N        1.26500000       0.70850000       0.06460000
C       -0.02910000       0.05870000       0.00100000
C       -0.58500000      -1.01190000       0.93460000
C       -1.82860000      -1.13670000      -0.02040000
C       -2.19490000      -2.61460000      -0.05680000
O       -0.89000000      -3.21830000      -0.08090000
C       -0.03710000      -2.09300000      -0.05350000
C       -0.59560000      -0.96190000      -0.98140000
H       -0.19380000       2.08490000       0.92220000
H       -0.21460000       2.05990000      -0.90580000
H        1.71460000       0.71070000      -0.84860000
H       -0.58220000      -1.04210000       2.02340000
H       -2.61820000      -0.38670000       0.00160000
H       -2.74740000      -2.94690000       0.83070000
H       -2.75900000      -2.90200000      -0.95270000
H        1.00920000      -2.39080000      -0.06310000
H       -0.60830000      -0.93610000      -2.07180000
