21
Properties=species:S:1:pos:R:3 gdb_82965=T pbc="F F F"
C        0.10620000       1.52750000       0.29720000
C        0.01020000       0.03850000       0.01730000
C        0.77730000      -0.63870000      -1.19410000
C        2.34190000      -0.48530000      -1.27160000
C        2.57730000      -1.81010000      -0.43730000
C        3.06730000      -1.62090000       1.02060000
C        1.92390000      -0.77900000       1.59260000
C        0.82630000      -0.94090000       0.84670000
C        1.04170000      -1.89890000      -0.31840000
H        1.15070000       1.85020000       0.35590000
H       -0.38810000       2.10690000      -0.49010000
H       -0.37480000       1.78210000       1.24780000
H       -1.04090000      -0.26370000      -0.08440000
H        0.24880000      -0.66020000      -2.15050000
H        2.69320000      -0.58550000      -2.30130000
H        2.77020000       0.43040000      -0.85550000
H        3.10450000      -2.59010000      -0.99360000
H        3.22980000      -2.58530000       1.52380000
H        4.01640000      -1.07400000       1.07930000
H        2.09360000       0.02790000       2.29750000
H        0.46730000      -2.82460000      -0.37580000
