18
Properties=species:S:1:pos:R:3 gdb_110425=T pbc="F F F"
O       -0.03120000       1.32260000       0.25260000
C        0.00210000      -0.02750000      -0.16320000
C       -1.39370000      -0.62830000      -0.09500000
C       -1.49830000      -2.13660000       0.01460000
C       -1.45040000      -2.01530000       1.51920000
N       -1.88530000      -0.54130000       1.35130000
C       -3.31630000      -1.02690000       1.21710000
C       -2.75300000      -2.39530000       0.86720000
O       -3.38060000      -3.61570000       0.77500000
H       -0.54200000       1.31670000       1.07400000
H        0.37580000      -0.04360000      -1.19290000
H        0.69340000      -0.62750000       0.45150000
H       -2.05440000      -0.10480000      -0.79620000
H       -1.09550000      -2.92640000      -0.60770000
H       -0.82610000      -2.41630000       2.30420000
H       -3.80080000      -1.00780000       2.19850000
H       -3.92260000      -0.47460000       0.49090000
H       -3.74940000      -3.83640000       1.63780000
