20
Properties=species:S:1:pos:R:3 gdb_112870=T pbc="F F F"
C       -0.07650000       1.57210000       0.05740000
C        0.05780000       0.05320000       0.01920000
C        0.80390000      -0.49240000      -1.22290000
C        1.52450000      -1.75620000      -0.72730000
C        2.86950000      -2.08480000      -1.39040000
O        3.43990000      -3.25550000      -0.85740000
C        1.70290000      -1.49530000       0.77110000
O        2.45260000      -2.09510000       1.52550000
N        0.88320000      -0.46420000       1.10770000
H        0.90860000       2.04790000       0.02170000
H       -0.66190000       1.92070000      -0.79910000
H       -0.58800000       1.90670000       0.96630000
H       -0.94780000      -0.39190000       0.06940000
H        0.12540000      -0.67540000      -2.05860000
H        1.54270000       0.25020000      -1.54920000
H        0.88000000      -2.64030000      -0.82050000
H        2.72590000      -2.25030000      -2.46440000
H        3.53970000      -1.21310000      -1.28360000
H        3.42260000      -3.13980000       0.10640000
H        0.76990000      -0.18810000       2.07100000
