22
Properties=species:S:1:pos:R:3 gdb_40811=T pbc="F F F"
C       -0.17930000       1.34750000      -0.17930000
C        1.24940000       0.98530000       0.03020000
N        0.21010000      -0.03880000       0.05550000
C       -0.12740000      -0.59080000       1.37280000
C       -1.56940000      -1.11210000       1.36580000
C       -1.85060000      -1.95530000       2.61470000
C       -0.92850000      -3.18290000       2.67190000
C        0.48780000      -2.84400000       2.28610000
C        0.84430000      -1.69400000       1.71700000
H       -0.67640000       1.88280000       0.62890000
H       -0.55480000       1.57450000      -1.17280000
H        1.93960000       0.94170000      -0.80740000
H        1.69960000       1.28240000       0.97670000
H       -0.04440000       0.20430000       2.14370000
H       -2.26920000      -0.27210000       1.29680000
H       -1.70480000      -1.71860000       0.46230000
H       -1.68770000      -1.34030000       3.50940000
H       -2.89990000      -2.26750000       2.63730000
H       -0.94500000      -3.62560000       3.67600000
H       -1.30450000      -3.97060000       2.00160000
H        1.24540000      -3.59810000       2.48850000
H        1.88570000      -1.50740000       1.46590000
