15
Properties=species:S:1:pos:R:3 gdb_5219=T pbc="F F F"
C        0.10300000       1.65070000      -0.01870000
C       -0.14920000       0.15780000      -0.22310000
N       -1.56560000      -0.08550000      -0.46420000
C       -1.91190000      -1.00380000      -1.23580000
O       -1.11140000      -1.88520000      -1.93760000
C       -1.96020000      -2.69950000      -2.66390000
C       -3.21460000      -2.34460000      -2.41390000
O       -3.22160000      -1.29190000      -1.52360000
H        1.15740000       1.83650000       0.20970000
H       -0.15910000       2.21490000      -0.91900000
H       -0.50620000       2.03210000       0.80550000
H        0.48090000      -0.22240000      -1.03920000
H        0.14960000      -0.38690000       0.68360000
H       -1.51120000      -3.45500000      -3.28340000
H       -4.16830000      -2.70460000      -2.75560000
