18
Properties=species:S:1:pos:R:3 gdb_29578=T pbc="F F F"
N        0.08410000       1.40680000      -0.01520000
C        0.02240000       0.00080000       0.00680000
C       -1.10010000      -0.79780000      -0.01150000
N       -0.67400000      -2.11140000      -0.06330000
C        0.68860000      -2.15690000      -0.07690000
C        1.16550000      -0.86140000      -0.02790000
C        2.58260000      -0.42740000      -0.04750000
C        3.23290000       0.11550000       1.18210000
N        3.61700000      -1.20710000       0.65840000
H        0.91220000       1.75040000       0.45610000
H       -0.73250000       1.84120000       0.39530000
H       -2.14830000      -0.54800000       0.00780000
H       -1.28020000      -2.91080000      -0.08520000
H        1.22000000      -3.09380000      -0.13070000
H        2.94350000      -0.03090000      -0.99620000
H        4.00190000       0.87890000       1.10120000
H        2.63790000       0.15600000       2.09080000
H        3.15350000      -1.92040000       1.21730000
