22
Properties=species:S:1:pos:R:3 gdb_101038=T pbc="F F F"
C        0.18470000       1.25170000      -0.29770000
O        0.06040000      -0.12770000      -0.03820000
C       -1.27050000      -0.59010000       0.14300000
C       -2.07740000      -0.57760000      -1.16270000
C       -1.15360000      -1.97280000       0.76670000
C       -0.38060000      -3.02430000      -0.02640000
O       -0.45540000      -4.29420000       0.58370000
C       -1.17640000      -2.07570000       2.24420000
N       -2.33700000      -2.53190000       1.44590000
H        1.25160000       1.48620000      -0.27360000
H       -0.21150000       1.53730000      -1.28250000
H       -0.32720000       1.85510000       0.46870000
H       -1.78330000       0.06390000       0.87230000
H       -1.54710000      -1.11190000      -1.95520000
H       -3.05080000      -1.05590000      -1.01500000
H       -2.26040000       0.44470000      -1.50410000
H       -0.76630000      -3.05850000      -1.05820000
H        0.67390000      -2.73900000      -0.07840000
H       -1.38130000      -4.39330000       0.84970000
H       -0.62820000      -2.87580000       2.72990000
H       -1.27550000      -1.15950000       2.81950000
H       -3.09230000      -1.85240000       1.48950000
