17
Properties=species:S:1:pos:R:3 gdb_63454=T pbc="F F F"
C       -0.08990000       1.55680000      -0.00940000
C       -0.00950000       0.04850000      -0.01280000
O       -1.17370000      -0.58900000      -0.44760000
C        1.28910000      -0.65230000      -0.25770000
C        0.67490000      -0.68510000       1.16250000
C        1.31660000       0.09950000       2.18760000
C        1.85660000       0.75030000       3.04230000
C        0.10440000      -1.92920000       1.61200000
C       -0.34920000      -2.96670000       2.01360000
H        0.80380000       2.00670000       0.42630000
H       -0.19680000       1.92650000      -1.03630000
H       -0.96190000       1.88390000       0.56410000
H       -1.21730000      -0.50270000      -1.40650000
H        1.25770000      -1.59370000      -0.79300000
H        2.19260000      -0.06540000      -0.37610000
H        2.32660000       1.31770000       3.80680000
H       -0.76360000      -3.87820000       2.36610000
