19
Properties=species:S:1:pos:R:3 gdb_6034=T pbc="F F F"
C       -0.02220000       1.54840000       0.01520000
C        0.00010000       0.00520000       0.01750000
C        0.74840000      -0.51790000       1.26200000
C       -1.44260000      -0.52950000       0.02290000
O       -2.08440000      -0.05670000       1.20230000
C        0.67000000      -0.52060000      -1.26670000
N        1.96890000      -0.14630000      -1.45270000
O        0.09050000      -1.22650000      -2.07310000
H        0.98370000       1.97410000       0.08620000
H       -0.48590000       1.93410000      -0.89850000
H       -0.60360000       1.90520000       0.86840000
H        0.19720000      -0.23800000       2.16250000
H        0.83390000      -1.60920000       1.24000000
H        1.75880000      -0.10390000       1.33790000
H       -1.96080000      -0.18490000      -0.88110000
H       -1.42330000      -1.62640000      -0.01080000
H       -2.98460000      -0.39220000       1.20310000
H        2.46900000       0.43470000      -0.80480000
H        2.43980000      -0.47070000      -2.28080000
