18
Properties=species:S:1:pos:R:3 gdb_108765=T pbc="F F F"
C       -0.05120000       1.42630000       0.10890000
N       -0.00890000      -0.01260000      -0.05510000
C        0.62960000      -0.60240000      -1.08910000
C        1.22860000      -0.05910000      -2.17240000
C        1.73020000      -1.13510000      -3.02040000
O        2.31640000      -1.10690000      -4.06690000
O        1.41800000      -2.34770000      -2.40630000
C        0.73320000      -2.11320000      -1.18260000
C        1.49290000      -2.76590000      -0.02840000
H        0.95090000       1.85520000       0.24230000
H       -0.50900000       1.89530000      -0.76920000
H       -0.65680000       1.67150000       0.98300000
H       -0.27000000      -0.58370000       0.72990000
H        1.34960000       0.98090000      -2.42880000
H       -0.27180000      -2.55220000      -1.26120000
H        2.48950000      -2.32610000       0.06590000
H        0.96050000      -2.63960000       0.92070000
H        1.59920000      -3.83700000      -0.21580000
