22
Properties=species:S:1:pos:R:3 gdb_60144=T pbc="F F F"
C       -0.73410000       1.71300000       1.06060000
C       -0.75240000       0.18450000       1.03710000
O       -1.05580000      -0.30450000      -0.26910000
C        0.60330000      -0.42080000       1.41460000
C        0.55390000      -1.93060000       1.49990000
C        1.46770000      -2.79380000       2.27260000
C        1.90380000      -2.17000000       3.59790000
C        0.39590000      -2.01700000       3.91200000
N       -0.01620000      -2.70240000       2.63340000
H        0.02130000       2.09690000       0.36730000
H       -1.70710000       2.11820000       0.76040000
H       -0.51250000       2.09130000       2.06430000
H       -1.50560000      -0.17900000       1.75490000
H       -1.95680000      -0.04500000      -0.48410000
H        1.32640000      -0.13950000       0.63810000
H        0.95070000       0.03260000       2.34660000
H        0.21040000      -2.37550000       0.56930000
H        1.89190000      -3.70100000       1.85150000
H        2.39860000      -2.88250000       4.26020000
H        2.51920000      -1.26680000       3.53880000
H        0.06570000      -2.61980000       4.76030000
H       -0.00030000      -1.00380000       4.03390000
