16
Properties=species:S:1:pos:R:3 gdb_48317=T pbc="F F F"
O       -0.49660000       0.45360000       0.68120000
C        0.08050000       1.05750000      -0.19020000
C        1.29590000       1.92780000      -0.02060000
C        1.78420000       2.45400000      -1.27070000
C        2.13780000       2.88730000      -2.33440000
C        1.51290000       2.81230000       1.18770000
C        0.95740000       2.23950000       2.48740000
C        1.86560000       1.01680000       2.20250000
N        2.42580000       1.66080000       0.95020000
H       -0.26740000       1.01980000      -1.24350000
H        2.47050000       3.26770000      -3.26860000
H        1.82190000       3.83800000       1.00910000
H        1.27240000       2.82080000       3.35610000
H       -0.11700000       2.06350000       2.53200000
H        2.69260000       0.90700000       2.90640000
H        1.37920000       0.05640000       2.04520000
