16
Properties=species:S:1:pos:R:3 gdb_77846=T pbc="F F F"
C       -0.56690000       1.45860000       0.10250000
C       -0.01190000       0.05040000       0.01540000
N        0.54340000      -0.47310000      -1.29610000
C        1.88260000       0.10340000      -1.53790000
C        2.35330000       1.41170000      -1.16640000
C        2.82830000       2.49040000      -0.92620000
C        1.75160000      -1.03030000      -0.56440000
C        1.23960000      -0.48580000       0.75060000
O        1.56560000      -0.60360000       1.89350000
H        0.17490000       2.21640000      -0.14410000
H       -1.41860000       1.56520000      -0.57670000
H       -0.92310000       1.63930000       1.12160000
H       -0.80440000      -0.66270000       0.28260000
H        2.23890000      -0.20920000      -2.51780000
H        3.23260000       3.44510000      -0.69460000
H        2.17890000      -2.00800000      -0.75710000
