15
Properties=species:S:1:pos:R:3 gdb_18564=T pbc="F F F"
O       -0.01610000      -0.00940000       0.03530000
C       -0.00310000       1.19010000       0.01980000
N       -1.00150000       2.13870000      -0.01410000
C       -0.13200000       3.31680000       0.06770000
C       -0.01390000       3.98050000       1.44380000
C        0.89930000       3.00640000       2.21330000
O        1.80510000       2.48830000       1.23620000
C        1.08360000       2.32660000       0.04570000
H       -2.00690000       2.04650000       0.01330000
H       -0.24610000       4.01420000      -0.76440000
H        0.47470000       4.95380000       1.33360000
H       -0.97920000       4.13400000       1.93310000
H        1.49340000       3.48030000       2.99700000
H        0.31420000       2.19240000       2.66430000
H        1.76910000       2.33700000      -0.80230000
