19
Properties=species:S:1:pos:R:3 gdb_112985=T pbc="F F F"
C       -0.10210000       1.56430000       0.02540000
C        0.07500000       0.04320000       0.08540000
C        0.70460000      -0.51900000      -1.18890000
C        0.76510000      -2.06580000      -1.35430000
N       -0.08700000      -1.92720000      -2.54660000
C       -0.57620000      -2.90000000      -3.40010000
N       -1.31310000      -2.63510000      -4.39860000
C       -0.19770000      -0.52870000      -2.44300000
O       -0.79030000       0.28840000      -3.08400000
H        0.86590000       2.06920000      -0.06600000
H       -0.70980000       1.84980000      -0.83730000
H       -0.58910000       1.93680000       0.93130000
H        0.70290000      -0.23100000       0.94240000
H       -0.89770000      -0.43890000       0.24690000
H        1.66490000      -0.03390000      -1.39170000
H        1.75450000      -2.48230000      -1.56500000
H        0.29130000      -2.62850000      -0.54350000
H       -0.24050000      -3.89980000      -3.09360000
H       -1.55710000      -3.49440000      -4.88830000
