15
Properties=species:S:1:pos:R:3 gdb_132092=T pbc="F F F"
C        0.07270000       1.52600000       0.05310000
C       -0.10850000       0.04530000      -0.04590000
C       -0.14340000      -0.66330000      -1.20620000
F       -0.01020000      -0.03980000      -2.38240000
N       -0.30850000      -2.00080000      -1.26570000
C       -0.44310000      -2.66130000      -0.15860000
C       -0.42950000      -2.05810000       1.17520000
N       -0.55340000      -2.61810000       2.32430000
N       -0.25300000      -0.67570000       1.11190000
H        0.96940000       1.77430000       0.63280000
H        0.17300000       1.95650000      -0.94270000
H       -0.78420000       1.99430000       0.55120000
H       -0.57570000      -3.73960000      -0.21780000
H       -0.67450000      -3.62310000       2.21520000
H       -0.23510000      -0.20120000       2.00420000
