21
Properties=species:S:1:pos:R:3 gdb_86367=T pbc="F F F"
C       -0.72460000       1.24650000      -1.09770000
C        0.08250000      -0.01030000      -0.84000000
O        1.43640000       0.09530000      -1.33920000
C        1.99640000      -0.40660000      -0.10660000
C        3.14310000       0.44660000       0.39790000
C        0.60320000      -0.36420000       0.58520000
C        0.39190000       0.64710000       1.71760000
C       -1.00080000       0.53880000       2.29890000
O       -1.80710000       1.43130000       2.34310000
H       -0.23570000       2.13140000      -0.68280000
H       -0.82930000       1.39520000      -2.17700000
H       -1.72590000       1.16690000      -0.66310000
H       -0.42560000      -0.87030000      -1.30120000
H        2.34500000      -1.44200000      -0.23960000
H        2.83600000       1.48390000       0.55490000
H        3.54140000       0.04870000       1.33770000
H        3.95200000       0.44170000      -0.33930000
H        0.27140000      -1.34950000       0.92730000
H        1.09830000       0.41340000       2.52760000
H        0.56410000       1.67920000       1.40630000
H       -1.24760000      -0.47470000       2.69700000
