18
Properties=species:S:1:pos:R:3 gdb_77352=T pbc="F F F"
C       -0.01130000       1.57020000       0.01650000
C       -0.00130000       0.03430000      -0.01030000
C        0.78760000      -0.55610000      -1.20820000
C        2.15290000      -0.89330000      -0.56780000
O        1.90540000      -1.10020000       0.82660000
C        0.71810000      -0.53510000       1.20090000
N        0.28580000      -0.48710000       2.38450000
C        0.11840000      -1.80600000      -1.74070000
O       -0.27890000      -1.93870000      -2.86850000
H        1.00510000       1.97700000      -0.01090000
H       -0.55980000       1.96590000      -0.84310000
H       -0.49130000       1.91890000       0.93370000
H       -1.03590000      -0.32070000       0.00550000
H        0.88640000       0.15020000      -2.03460000
H        2.60990000      -1.80440000      -0.96490000
H        2.86290000      -0.06800000      -0.69440000
H        0.95240000      -0.90690000       3.03430000
H        0.01180000      -2.62600000      -0.99200000
