15
Properties=species:S:1:pos:R:3 gdb_45729=T pbc="F F F"
O        0.06600000      -0.02810000      -0.10640000
C        0.00180000       1.18230000      -0.02330000
N       -1.19830000       1.87030000      -0.13310000
C       -1.30310000       3.24130000       0.04830000
C       -0.23130000       4.02490000       0.16000000
C        1.15780000       3.43770000       0.04710000
N        1.08900000       1.98390000       0.24050000
C        1.80010000       3.80260000      -1.22910000
C        2.33750000       4.09720000      -2.26320000
H       -2.01440000       1.28760000      -0.20970000
H       -2.31520000       3.62550000       0.09600000
H       -0.32460000       5.09400000       0.28460000
H        1.78430000       3.84370000       0.85420000
H        1.96040000       1.47740000       0.19370000
H        2.80470000       4.35500000      -3.18170000
