17
Properties=species:S:1:pos:R:3 gdb_28100=T pbc="F F F"
C       -0.02090000       1.45580000       0.05130000
C       -0.00040000      -0.03670000      -0.02290000
C       -0.03610000      -0.79910000      -1.14340000
C        0.00430000      -2.18950000      -0.73030000
C        0.06490000      -2.29540000       0.63590000
C        0.06780000      -0.91770000       1.22900000
N        0.10350000      -3.59850000       1.04410000
C        0.06650000      -4.28750000      -0.08180000
N        0.00480000      -3.47840000      -1.19810000
H        0.87690000       1.84930000       0.54580000
H       -0.07630000       1.90160000      -0.94590000
H       -0.87890000       1.82090000       0.63090000
H       -0.08610000      -0.42410000      -2.15780000
H        0.96880000      -0.69900000       1.81700000
H       -0.78620000      -0.72760000       1.89220000
H        0.08060000      -5.36380000      -0.16450000
H       -0.03130000      -3.79260000      -2.15280000
