20
Properties=species:S:1:pos:R:3 gdb_14772=T pbc="F F F"
C        0.06910000       1.49840000       0.12360000
C       -0.02710000      -0.02700000       0.04410000
C       -1.46790000      -0.51680000       0.00510000
O       -1.46640000      -1.92900000      -0.07290000
C       -2.75730000      -2.48690000      -0.11840000
C       -2.61520000      -4.00440000      -0.24260000
C       -3.93570000      -4.71650000      -0.06330000
O       -4.41520000      -5.49160000      -0.84930000
H        1.11270000       1.82440000       0.15130000
H       -0.40400000       1.97460000      -0.74230000
H       -0.42280000       1.88420000       1.02340000
H        0.48890000      -0.39530000      -0.84990000
H        0.47310000      -0.48560000       0.90470000
H       -2.01170000      -0.18490000       0.90690000
H       -1.99670000      -0.08760000      -0.86370000
H       -3.32380000      -2.22980000       0.79440000
H       -3.32660000      -2.08550000      -0.97350000
H       -2.17780000      -4.28460000      -1.20340000
H       -1.94110000      -4.33970000       0.55810000
H       -4.46200000      -4.47260000       0.89030000
