15
Properties=species:S:1:pos:R:3 gdb_66642=T pbc="F F F"
O       -0.09460000       1.39070000       0.10420000
C        0.03030000       0.02450000       0.03890000
C       -1.04910000      -1.01970000       0.08160000
C       -0.18840000      -0.86320000      -1.17150000
C        0.89450000      -1.97800000      -1.06220000
O        0.31070000      -2.94260000      -0.19460000
C       -0.12140000      -2.01870000       0.79570000
C        1.03710000      -0.90240000       0.75930000
O        1.91110000      -1.39280000      -0.24890000
H        0.61270000       1.78730000      -0.41730000
H       -2.12780000      -0.94400000       0.10230000
H       -0.59520000      -0.48940000      -2.09970000
H        1.30640000      -2.43310000      -1.95810000
H       -0.40240000      -2.51230000       1.72100000
H        1.56480000      -0.59350000       1.65690000
