17
Properties=species:S:1:pos:R:3 gdb_35688=T pbc="F F F"
C       -0.16030000      -1.16200000      -0.32160000
C       -0.09830000       0.00920000      -0.05700000
C       -0.00570000       1.42730000       0.24270000
O        0.03670000       1.72000000       1.66090000
C        1.30940000       2.38880000       1.53710000
C        1.37010000       2.12350000       0.02690000
C        2.56020000       1.44970000      -0.67160000
O        2.66180000       2.52110000      -1.63390000
C        1.56700000       3.22880000      -1.02300000
H       -0.22870000      -2.19780000      -0.54780000
H       -0.83510000       1.96460000      -0.23890000
H        1.24880000       3.44590000       1.82630000
H        2.08960000       1.89740000       2.13210000
H        3.46590000       1.35930000      -0.05750000
H        2.34260000       0.48390000      -1.14200000
H        0.72870000       3.37750000      -1.71670000
H        1.87460000       4.20330000      -0.62000000
