19
Properties=species:S:1:pos:R:3 gdb_32975=T pbc="F F F"
C        0.11110000       1.23620000      -1.10630000
C       -0.12980000       0.27740000       0.04930000
O        0.92470000      -0.69690000       0.19140000
C        0.90530000      -1.72790000      -0.68300000
C        1.38280000      -1.89960000      -1.95750000
N        1.16680000      -3.19330000      -2.37350000
C        0.57430000      -3.79080000      -1.36590000
N        0.38440000      -2.95470000      -0.30230000
C       -0.22500000      -3.26440000       0.97440000
H        1.07080000       1.74720000      -0.98760000
H        0.11250000       0.70480000      -2.06180000
H       -0.68250000       1.99010000      -1.13650000
H       -0.14090000       0.81170000       1.00350000
H       -1.09150000      -0.23970000      -0.06480000
H        1.88270000      -1.17330000      -2.57890000
H        0.26500000      -4.82580000      -1.33490000
H        0.26390000      -2.68160000       1.75710000
H       -1.29550000      -3.03050000       0.98070000
H       -0.09770000      -4.32760000       1.18830000
