23
Properties=species:S:1:pos:R:3 gdb_92478=T pbc="F F F"
C       -0.18740000       1.52710000      -0.03490000
C        0.05960000       0.02370000       0.01760000
O        0.78920000      -0.35100000      -1.16450000
C        1.87060000      -1.24790000      -0.89890000
C        2.93700000      -0.51520000      -0.07290000
C        2.27170000      -0.00340000       1.23650000
C        0.80780000      -0.48260000       1.26650000
C        0.78680000      -2.02350000       1.22500000
C        1.35450000      -2.48420000      -0.14760000
H        0.74820000       2.09140000       0.01640000
H       -0.68110000       1.78600000      -0.97600000
H       -0.83350000       1.84330000       0.79100000
H       -0.92120000      -0.48090000      -0.01530000
H        2.26060000      -1.52620000      -1.88210000
H        3.77440000      -1.18980000       0.13700000
H        3.33260000       0.31650000      -0.66270000
H        2.79450000      -0.38370000       2.12030000
H        2.32000000       1.08730000       1.29510000
H        0.30030000      -0.11630000       2.16480000
H        1.38010000      -2.42410000       2.05390000
H       -0.23630000      -2.38850000       1.36310000
H        0.58050000      -2.96450000      -0.75340000
H        2.16440000      -3.21090000      -0.02550000
