15
Properties=species:S:1:pos:R:3 gdb_87106=T pbc="F F F"
O       -0.13320000       1.36430000      -0.13350000
C        0.00870000      -0.00520000      -0.01860000
C       -0.26720000      -0.71980000       1.26540000
C       -1.29420000      -0.82420000       0.15900000
O       -2.44080000      -0.04210000       0.34550000
C       -1.40480000      -2.09200000      -0.60510000
O       -0.50380000      -2.90650000      -0.66080000
C       -2.64860000      -2.26490000      -1.34450000
C       -3.67610000      -2.38500000      -1.96150000
H       -1.03000000       1.57460000       0.16610000
H        0.76460000      -0.40610000      -0.68500000
H        0.28800000      -1.62730000       1.47470000
H       -0.56820000      -0.12400000       2.12040000
H       -2.93390000      -0.03120000      -0.48560000
H       -4.57540000      -2.52120000      -2.51270000
