23
Properties=species:S:1:pos:R:3 gdb_86086=T pbc="F F F"
C       -0.69430000       1.23510000       0.07080000
C        0.11170000      -0.05480000      -0.06380000
C        1.26440000       0.02560000      -1.10080000
C        2.35250000      -0.85790000      -0.52430000
C        3.55720000      -1.24670000      -1.32010000
C        2.08270000      -1.16340000       0.74800000
C        0.80240000      -0.57320000       1.21790000
C        0.73740000       0.14160000       2.55640000
C        0.01910000      -1.16820000       2.36200000
H       -0.05750000       2.07100000       0.37980000
H       -1.15540000       1.50310000      -0.88570000
H       -1.50150000       1.13700000       0.80540000
H       -0.56930000      -0.85020000      -0.39440000
H        0.94410000      -0.29150000      -2.10110000
H        1.63210000       1.05760000      -1.21300000
H        4.10610000      -0.36170000      -1.66840000
H        4.24610000      -1.86420000      -0.73680000
H        3.27630000      -1.80850000      -2.22060000
H        2.72330000      -1.75250000       1.39770000
H        1.63410000       0.15250000       3.16740000
H        0.14030000       1.04390000       2.63060000
H       -1.06480000      -1.14510000       2.29360000
H        0.41210000      -2.05430000       2.85040000
