16
Properties=species:S:1:pos:R:3 gdb_124279=T pbc="F F F"
C       -0.05590000       1.47340000      -0.01100000
C        0.01380000      -0.03910000      -0.02280000
O        1.08460000      -0.63360000      -0.01850000
C       -1.24560000      -0.78460000      -0.02950000
N       -2.44570000      -0.17740000       0.01730000
N       -3.31810000      -1.17320000       0.03730000
C       -2.74840000      -2.41710000      -0.00100000
C       -1.38160000      -2.20690000      -0.04800000
N       -0.35010000      -3.11920000      -0.16470000
H        0.95610000       1.87870000       0.01390000
H       -0.58510000       1.83480000      -0.89820000
H       -0.62620000       1.82260000       0.85500000
H       -4.30110000      -0.95970000       0.07550000
H       -3.34230000      -3.31610000       0.00310000
H       -0.49450000      -4.00770000       0.29040000
H        0.55010000      -2.69750000       0.02880000
