22
Properties=species:S:1:pos:R:3 gdb_122888=T pbc="F F F"
C       -0.07190000       1.58230000       0.17520000
C        0.05090000       0.05190000       0.03560000
C        0.73210000      -0.40220000      -1.27880000
C       -0.06240000      -0.05030000      -2.54150000
C        0.59470000      -0.59840000      -3.81230000
C       -0.17660000      -0.24780000      -5.07820000
O        0.52420000      -0.80050000      -6.18080000
C        0.77850000      -0.49820000       1.18530000
N        1.36260000      -0.92750000       2.08570000
H        0.91310000       2.05500000       0.11990000
H       -0.69710000       1.98870000      -0.62290000
H       -0.52480000       1.85030000       1.13280000
H       -0.95760000      -0.38230000       0.06600000
H        1.73330000       0.04300000      -1.32930000
H        0.87910000      -1.48720000      -1.23550000
H       -1.08190000      -0.45120000      -2.45200000
H       -0.16660000       1.03810000      -2.62990000
H        1.61460000      -0.20660000      -3.90880000
H        0.68490000      -1.68960000      -3.75120000
H       -1.20130000      -0.65020000      -5.01300000
H       -0.26420000       0.84780000      -5.16870000
H        0.04140000      -0.58620000      -6.98430000
