16
Properties=species:S:1:pos:R:3 gdb_20861=T pbc="F F F"
C        0.07200000       1.51570000       0.13490000
C       -0.05920000      -0.00510000      -0.06140000
C        0.69550000      -0.51280000      -1.25210000
N        0.07520000      -0.79740000      -2.37370000
O        1.04620000      -1.22880000      -3.25910000
C        2.24850000      -1.18180000      -2.64500000
C        2.10610000      -0.74050000      -1.36650000
N        3.04620000      -0.62660000      -0.33270000
H        1.11490000       1.82370000       0.27010000
H       -0.31920000       2.05180000      -0.73440000
H       -0.48530000       1.84000000       1.01860000
H        0.30040000      -0.52660000       0.83390000
H       -1.11290000      -0.26850000      -0.18800000
H        3.09500000      -1.50100000      -3.23200000
H        4.00150000      -0.67480000      -0.66220000
H        2.92850000       0.21660000       0.21460000
