17
Properties=species:S:1:pos:R:3 gdb_67095=T pbc="F F F"
O        0.21110000       1.37170000      -0.10570000
C        0.12680000       0.00090000      -0.05840000
C        0.43430000      -0.96200000       1.13010000
C       -1.06250000      -0.94670000       1.60910000
C       -1.16120000      -0.92610000       0.06560000
C       -1.86030000      -0.89050000      -1.27230000
C       -0.82180000      -0.88070000      -2.12590000
C        0.45910000      -0.91710000      -1.26110000
C        0.07510000      -1.86750000      -0.08420000
H        0.01160000       1.72860000       0.76720000
H        1.33320000      -1.01040000       1.74560000
H       -1.41640000      -1.85040000       2.11470000
H       -1.40690000      -0.05780000       2.14890000
H       -2.91850000      -0.85220000      -1.48490000
H       -0.84720000      -0.84950000      -3.20630000
H        1.43040000      -0.93220000      -1.75820000
H        0.01490000      -2.95530000      -0.09020000
