20
Properties=species:S:1:pos:R:3 gdb_40340=T pbc="F F F"
C       -0.05780000       1.40820000      -0.23800000
C        1.29260000       0.78590000      -0.13130000
N        0.08510000      -0.01660000       0.05690000
C       -0.22040000      -0.45680000       1.35720000
C       -0.04030000      -1.81240000       1.98850000
C        0.62950000      -1.22230000       3.22610000
C       -0.07730000       0.11170000       2.86350000
C       -1.58660000      -0.20090000       3.05110000
C       -1.44310000      -1.16580000       1.87780000
H       -0.36610000       2.06740000       0.57050000
H       -0.47960000       1.64560000      -1.21030000
H        1.86870000       0.56350000      -1.02480000
H        1.88410000       1.03050000       0.74830000
H        0.17430000      -2.74360000       1.48070000
H        0.39870000      -1.65200000       4.20830000
H        1.71410000      -1.16020000       3.09960000
H        0.33780000       1.06670000       3.18070000
H       -1.89090000      -0.59660000       4.02750000
H       -2.21860000       0.65250000       2.78900000
H       -2.21930000      -1.64030000       1.29170000
