20
Properties=species:S:1:pos:R:3 gdb_89902=T pbc="F F F"
O        0.19500000       1.38470000      -0.15770000
C        0.07710000      -0.00840000      -0.02320000
C        0.32140000      -0.69010000       1.34890000
C       -0.80880000      -1.68790000       0.99450000
C       -0.46800000      -3.14200000       0.49620000
C       -1.44290000      -3.68210000       1.54670000
N       -0.93000000      -3.21600000       2.85910000
C       -1.75510000      -2.30730000       2.01990000
C       -1.32200000      -0.68170000      -0.06740000
H       -0.33540000       1.79480000       0.53380000
H        0.73290000      -0.43010000      -0.79080000
H        1.31440000      -1.08710000       1.56760000
H        0.01810000      -0.03070000       2.17140000
H       -0.79900000      -3.31440000      -0.53110000
H        0.56820000      -3.47100000       0.61230000
H       -2.07600000      -4.55810000       1.47970000
H       -1.55080000      -3.59990000       3.57230000
H       -2.67790000      -1.88390000       2.40130000
H       -2.08140000      -0.01320000       0.35800000
H       -1.68940000      -1.06630000      -1.02250000
