20
Properties=species:S:1:pos:R:3 gdb_39973=T pbc="F F F"
C        0.01060000       1.52640000       0.00020000
C        1.30230000       0.73970000      -0.00720000
C       -0.02260000       0.02390000       0.01280000
C       -0.47210000      -0.80530000       1.22210000
C       -0.72760000      -2.17320000       0.59770000
C       -1.72390000      -2.32290000      -0.49520000
C       -2.01530000      -1.00530000      -1.19750000
C       -0.47770000      -0.78140000      -1.18060000
N       -0.24180000      -2.24880000      -0.80350000
H       -0.26250000       2.05180000       0.90970000
H       -0.27960000       2.04110000      -0.91040000
H        1.88440000       0.71910000      -0.92270000
H        1.89850000       0.73140000       0.89960000
H        0.30330000      -0.86400000       1.99190000
H       -1.37300000      -0.39820000       1.69520000
H       -0.51420000      -3.06280000       1.18200000
H       -2.28220000      -3.24480000      -0.63150000
H       -2.39160000      -1.16880000      -2.20970000
H       -2.64930000      -0.26760000      -0.69440000
H       -0.01020000      -0.50480000      -2.12610000
