22
Properties=species:S:1:pos:R:3 gdb_59025=T pbc="F F F"
C        0.02890000       1.55370000      -0.04480000
C       -0.01250000       0.01620000       0.04800000
C        0.73040000      -0.47650000       1.30370000
C       -1.42460000      -0.50320000       0.01010000
C       -1.96710000      -1.30940000      -0.90980000
C       -3.41940000      -1.64160000      -0.63330000
C       -3.67830000      -0.94240000       0.69690000
N       -2.84990000      -1.45350000       1.81070000
C       -2.43820000      -0.21680000       1.07980000
H        1.06390000       1.91080000      -0.06320000
H       -0.47240000       1.90980000      -0.94980000
H       -0.46260000       2.01850000       0.81740000
H        0.50600000      -0.38380000      -0.83280000
H        0.72960000      -1.56850000       1.35860000
H        1.76930000      -0.12980000       1.29990000
H        0.25510000      -0.09830000       2.21540000
H       -1.42920000      -1.72590000      -1.75540000
H       -4.08370000      -1.26170000      -1.42130000
H       -3.59160000      -2.72250000      -0.56330000
H       -4.66480000      -0.55200000       0.92290000
H       -3.29560000      -1.17620000       2.68450000
H       -2.45060000       0.72660000       1.61560000
