12
Properties=species:S:1:pos:R:3 gdb_132846=T pbc="F F F"
F       -0.09910000       0.05320000       0.00640000
C       -0.05780000       1.36400000       0.01190000
N       -1.21500000       1.98490000       0.03000000
C       -1.16490000       3.32090000       0.03580000
N       -0.07300000       4.08480000       0.02530000
C        1.08290000       3.42000000       0.00710000
C        1.17950000       2.02860000      -0.00080000
C        2.50650000       1.37320000      -0.02090000
O        2.70600000       0.18480000      -0.02870000
H       -2.12190000       3.83540000       0.05080000
H        1.99270000       4.01840000      -0.00180000
H        3.34770000       2.10270000      -0.02860000
