17
Properties=species:S:1:pos:R:3 gdb_35461=T pbc="F F F"
C       -0.07350000      -1.24840000      -0.17130000
C       -0.04680000      -0.05170000      -0.05430000
C       -0.00320000       1.39390000       0.07050000
C       -0.54440000       1.98220000       1.41930000
C        0.67750000       2.85280000       1.86440000
O        1.16860000       3.31470000       0.59800000
C        1.45020000       2.02480000       0.05690000
C        2.24910000       1.36370000       1.17090000
C        1.77160000       1.88720000       2.29980000
H       -0.10130000      -2.30490000      -0.27250000
H       -0.55440000       1.84310000      -0.76120000
H       -1.42070000       2.60900000       1.24190000
H       -0.80360000       1.20940000       2.14380000
H        0.44690000       3.69240000       2.51850000
H        1.90420000       2.10010000      -0.92950000
H        2.96490000       0.56520000       1.03940000
H        2.00040000       1.61970000       3.32220000
