17
Properties=species:S:1:pos:R:3 gdb_67300=T pbc="F F F"
O       -0.12210000       1.34150000       0.02370000
C       -0.04530000      -0.02850000       0.02040000
C        0.80320000      -0.99540000      -0.90740000
C        1.99030000      -1.00700000       0.07810000
C        0.74850000      -0.99680000       0.99430000
C       -0.05210000      -1.93280000       0.02230000
C       -1.23260000      -0.96940000      -0.00140000
C       -2.58900000      -0.94650000       0.52540000
O       -2.31540000      -0.96190000      -0.89780000
H        0.76800000       1.70940000      -0.01750000
H        0.80020000      -1.00950000      -1.99710000
H        2.60350000      -1.91270000       0.09530000
H        2.63550000      -0.12110000       0.09840000
H        0.68380000      -1.00900000       2.08270000
H       -0.03210000      -3.01920000       0.02200000
H       -3.04150000      -1.85660000       0.91690000
H       -3.01160000      -0.01600000       0.90060000
