13
Properties=species:S:1:pos:R:3 gdb_364=T pbc="F F F"
C        0.06320000       1.43090000      -0.02360000
N       -0.09560000       0.00040000      -0.16360000
C       -1.28130000      -0.62570000       0.05900000
O       -2.31840000      -0.09400000       0.39050000
O       -1.13640000      -1.96220000      -0.14710000
C       -2.32560000      -2.72580000       0.05910000
H        0.80380000       1.68060000       0.74510000
H        0.36950000       1.89640000      -0.96750000
H       -0.90360000       1.83930000       0.27310000
H        0.68440000      -0.57360000      -0.43550000
H       -3.11920000      -2.40580000      -0.62130000
H       -2.04990000      -3.76170000      -0.14220000
H       -2.68410000      -2.62190000       1.08660000
