17
Properties=species:S:1:pos:R:3 gdb_93316=T pbc="F F F"
C       -0.30040000       1.48290000      -0.03230000
C        0.07980000       0.00800000       0.02800000
C        1.00740000      -0.46530000      -1.09970000
O        1.60700000      -1.68070000      -0.61860000
C        1.55910000      -1.73540000       0.74090000
N        1.98170000      -2.67470000       1.46270000
C        0.87700000      -0.47000000       1.27220000
C        1.87610000       0.50530000       1.71320000
N        2.65310000       1.29610000       2.03960000
H        0.58240000       2.12510000       0.03410000
H       -0.81650000       1.70490000      -0.97160000
H       -0.97360000       1.74970000       0.78750000
H       -0.82700000      -0.60690000      -0.00340000
H        0.48210000      -0.69500000      -2.02900000
H        1.79690000       0.26810000      -1.30710000
H        2.39890000      -3.41390000       0.89460000
H        0.24000000      -0.72370000       2.12160000
