18
Properties=species:S:1:pos:R:3 gdb_113282=T pbc="F F F"
C       -0.01640000       1.44460000      -0.29510000
C        0.04520000       0.01370000       0.23470000
N       -1.29280000      -0.58350000       0.14540000
C       -1.66550000      -1.28360000      -1.04970000
C       -1.47250000      -2.06180000       0.23790000
C       -0.27560000      -2.97460000       0.29340000
O        0.70720000      -2.86310000      -0.39820000
C       -2.60200000      -2.50560000       1.01250000
C       -3.52210000      -2.93060000       1.65890000
H        0.96060000       1.92620000      -0.19250000
H       -0.28850000       1.45940000      -1.35550000
H       -0.75660000       2.03290000       0.25400000
H        0.80220000      -0.56440000      -0.30770000
H        0.32580000       0.01720000       1.29380000
H       -2.68350000      -1.13900000      -1.40080000
H       -0.90740000      -1.45790000      -1.81220000
H       -0.36700000      -3.78220000       1.04860000
H       -4.34370000      -3.28530000       2.23090000
