11
Properties=species:S:1:pos:R:3 gdb_860=T pbc="F F F"
O        0.11700000       1.28140000       0.09820000
C        0.08750000      -0.05930000       0.01800000
N        0.18840000      -0.77920000      -1.07370000
C        0.10160000      -2.08080000      -0.62980000
O        0.16890000      -3.11280000      -1.49880000
C       -0.05120000      -2.14770000       0.72430000
N       -0.05770000      -0.80300000       1.13120000
H        0.22710000       1.60710000      -0.80330000
H        0.27690000      -2.72340000      -2.37400000
H       -0.15150000      -2.96540000       1.41370000
H       -0.15200000      -0.45150000       2.06780000
