15
Properties=species:S:1:pos:R:3 gdb_123836=T pbc="F F F"
C       -0.01130000       1.48400000       0.10210000
C        1.37850000       2.15410000      -0.05220000
C        2.17760000       1.38820000      -1.05530000
C        1.96390000       0.06130000      -1.30130000
O        2.85890000      -0.37050000      -2.17720000
N        3.68690000       0.79090000      -2.48990000
N        3.25080000       1.76020000      -1.81360000
C        0.92000000      -0.71500000      -0.67260000
C        0.00120000      -0.02980000       0.02670000
H       -0.47290000       1.80710000       1.03980000
H       -0.67900000       1.84270000      -0.69680000
H        1.26170000       3.20140000      -0.34240000
H        1.90350000       2.15350000       0.91350000
H        0.89900000      -1.79270000      -0.77820000
H       -0.81610000      -0.55870000       0.50770000
