21
Properties=species:S:1:pos:R:3 gdb_70928=T pbc="F F F"
C        0.07220000       1.51290000       0.01190000
C        0.02690000       0.00760000      -0.00350000
C        0.60780000      -0.94580000      -1.12450000
C       -0.02930000      -1.87310000      -0.05470000
C        0.64970000      -0.97320000       1.02490000
C       -0.60170000      -3.23360000       0.22670000
O       -1.69870000      -2.93720000       1.11670000
C       -2.07740000      -1.53330000       1.08130000
C       -1.24530000      -0.92180000      -0.03880000
H        1.10570000       1.87540000      -0.01780000
H       -0.45690000       1.93320000      -0.85030000
H       -0.39610000       1.90910000       0.91950000
H        0.11660000      -0.90800000      -2.10110000
H        1.69690000      -0.96790000      -1.22030000
H        1.74240000      -1.00860000       1.05920000
H        0.22870000      -0.98250000       2.03090000
H       -0.96850000      -3.72400000      -0.68720000
H        0.07110000      -3.92120000       0.74960000
H       -3.15130000      -1.47610000       0.87410000
H       -1.90250000      -1.10050000       2.07320000
H       -1.80030000      -0.87550000      -0.98180000
