13
Properties=species:S:1:pos:R:3 gdb_20456=T pbc="F F F"
C        0.39170000       1.55150000       0.14200000
N        1.15640000       0.38580000      -0.31240000
C       -0.25280000       0.21370000       0.11420000
C       -0.48180000      -0.57670000       1.34060000
N       -0.04120000      -0.22490000       2.52090000
O       -0.46930000      -1.26450000       3.35380000
C       -1.13170000      -2.11600000       2.57130000
N       -1.18730000      -1.76660000       1.32710000
H        0.71200000       1.95760000       1.09580000
H        0.05450000       2.28460000      -0.58580000
H        1.19940000       0.36600000      -1.32850000
H       -0.99180000       0.01440000      -0.65570000
H       -1.54940000      -2.99400000       3.04170000
