21
Properties=species:S:1:pos:R:3 gdb_82604=T pbc="F F F"
C        0.18240000       1.04060000      -0.55910000
N        0.20900000      -0.37650000      -0.21580000
C       -1.08140000      -0.89490000       0.36240000
C       -0.70780000      -2.38150000       0.46580000
C        0.38310000      -2.12340000       1.53670000
C        0.73720000      -0.62120000       1.14420000
C       -0.61900000      -0.41730000       1.85380000
N       -0.34540000      -1.56210000       2.70840000
C       -1.41320000      -2.28800000       3.37300000
H        1.20110000       1.37650000      -0.78060000
H       -0.41800000       1.17810000      -1.46420000
H       -0.22710000       1.70210000       0.22460000
H       -2.00750000      -0.59030000      -0.12310000
H       -1.49710000      -3.04980000       0.81370000
H       -0.30880000      -2.74190000      -0.48300000
H        1.13580000      -2.88680000       1.73310000
H        1.69040000      -0.19500000       1.45200000
H       -1.01690000       0.49720000       2.29180000
H       -2.25480000      -2.58490000       2.72700000
H       -1.00370000      -3.19300000       3.83410000
H       -1.81630000      -1.66030000       4.17510000
