17
Properties=species:S:1:pos:R:3 gdb_76818=T pbc="F F F"
O        0.34850000       1.32880000      -0.14230000
C        0.09600000      -0.04820000      -0.06500000
C        0.20820000      -0.60910000       1.43500000
O        0.95450000       0.13270000       2.33060000
C       -1.34160000      -0.55010000       1.44000000
C       -2.83770000      -0.93850000       1.54510000
C       -2.63810000       0.17300000       0.44280000
O       -1.78430000       0.90310000       1.39050000
C       -1.39110000      -0.57360000      -0.10060000
H       -0.40360000       1.73510000       0.31790000
H        0.75360000      -0.54490000      -0.78130000
H        0.54140000      -1.65250000       1.44120000
H        1.01940000       1.01880000       1.94430000
H       -3.10670000      -1.94470000       1.21630000
H       -3.38260000      -0.61240000       2.43180000
H       -3.41360000       0.74320000      -0.07600000
H       -1.54070000      -1.52200000      -0.61790000
