18
Properties=species:S:1:pos:R:3 gdb_7093=T pbc="F F F"
C       -0.11340000       1.62960000      -0.03920000
C        0.01530000       0.10690000       0.04350000
C       -1.33690000      -0.60330000      -0.02310000
C       -1.23660000      -2.12230000       0.02050000
O       -0.18610000      -2.70950000      -0.02420000
C       -2.58990000      -2.85400000       0.13320000
C       -2.51390000      -4.29760000      -0.00250000
C       -2.45760000      -5.49130000      -0.11720000
H        0.86800000       2.11070000       0.01150000
H       -0.58720000       1.94030000      -0.97740000
H       -0.72020000       2.02600000       0.78290000
H        0.65020000      -0.26580000      -0.76660000
H        0.52260000      -0.17880000       0.97150000
H       -1.99960000      -0.27300000       0.78960000
H       -1.87040000      -0.33570000      -0.94780000
H       -3.02110000      -2.58100000       1.10740000
H       -3.27580000      -2.42700000      -0.61090000
H       -2.39870000      -6.54650000      -0.21940000
