20
Properties=species:S:1:pos:R:3 gdb_51092=T pbc="F F F"
O       -0.17990000       0.03680000      -0.23840000
C       -0.03040000       1.22840000      -0.06340000
N        1.16740000       1.85020000       0.09440000
C        2.43360000       1.16800000       0.02000000
C        2.95950000       0.50590000      -1.29260000
C        4.32580000       0.66350000      -0.56710000
C        3.75010000       1.98660000       0.02110000
C        4.17330000      -0.30890000       0.62130000
C        2.72620000       0.07180000       1.07100000
H       -0.87700000       1.94320000      -0.01210000
H        1.17070000       2.85510000       0.16980000
H        2.60380000      -0.49840000      -1.53070000
H        2.85620000       1.16780000      -2.15540000
H        5.26850000       0.65230000      -1.11230000
H        3.73890000       2.79880000      -0.71120000
H        4.13430000       2.34210000       0.98260000
H        4.25550000      -1.35420000       0.31090000
H        4.91830000      -0.13000000       1.40190000
H        2.68430000       0.47100000       2.08870000
H        2.01300000      -0.74880000       0.99120000
