16
Properties=species:S:1:pos:R:3 gdb_126295=T pbc="F F F"
C        0.04050000       1.55300000       0.16700000
C        0.00240000       0.03150000      -0.06730000
C       -1.39830000      -0.51870000      -0.06590000
C       -2.04540000      -0.94500000      -1.17060000
C       -3.40950000      -1.44240000      -1.10070000
O       -4.07880000      -1.83920000      -2.01510000
O       -3.98680000      -1.45190000       0.17410000
N       -3.33610000      -1.03030000       1.31450000
C       -2.13110000      -0.59580000       1.17750000
H        1.07400000       1.90960000       0.17710000
H       -0.49780000       2.08250000      -0.62430000
H       -0.41780000       1.82460000       1.12300000
H        0.48170000      -0.20900000      -1.02100000
H        0.58300000      -0.47020000       0.71710000
H       -1.59340000      -0.94120000      -2.15610000
H       -1.67130000      -0.28180000       2.11050000
