18
Properties=species:S:1:pos:R:3 gdb_88132=T pbc="F F F"
C        0.07990000       1.45990000      -0.32740000
C        0.10790000      -0.01540000      -0.02490000
O        1.39250000      -0.62340000       0.17740000
C        0.48420000      -0.55700000       1.28470000
C        0.88750000       0.21610000       2.52700000
C        1.09680000      -0.91630000       3.54410000
O        0.24680000      -1.99740000       3.11040000
C       -0.05530000      -1.86980000       1.78680000
N       -0.69730000      -2.70720000       1.09570000
H        0.76020000       2.01740000       0.32090000
H        0.37510000       1.63760000      -1.36650000
H       -0.93340000       1.85450000      -0.19630000
H       -0.56840000      -0.63770000      -0.61110000
H        1.78530000       0.81400000       2.36820000
H        0.07560000       0.87670000       2.84870000
H        2.13470000      -1.26850000       3.55210000
H        0.80470000      -0.65670000       4.56340000
H       -0.93430000      -3.53290000       1.64760000
