18
Properties=species:S:1:pos:R:3 gdb_6910=T pbc="F F F"
C        0.26660000       0.94030000      -1.84720000
C        0.27700000      -0.33140000      -1.01810000
C       -1.07910000      -0.71750000      -0.46080000
C        1.26620000      -1.40370000      -1.34160000
N        1.39010000      -0.63700000      -0.10080000
C        2.51240000       0.28350000       0.01430000
C        3.66610000      -0.39620000       0.61760000
N        4.58630000      -0.92080000       1.07770000
H        1.23340000       1.16450000      -2.30320000
H       -0.45970000       0.84250000      -2.66050000
H       -0.03710000       1.80170000      -1.24090000
H       -1.78760000      -0.91900000      -1.27190000
H       -0.99800000      -1.60920000       0.16440000
H       -1.49250000       0.09100000       0.15260000
H        1.01430000      -2.45390000      -1.22160000
H        1.98210000      -1.19970000      -2.13730000
H        2.85050000       0.72180000      -0.93810000
H        2.22490000       1.11590000       0.66720000
