20
Properties=species:S:1:pos:R:3 gdb_81268=T pbc="F F F"
C       -0.10580000       1.56930000       0.07840000
C        0.02550000       0.05330000       0.02960000
C        0.75220000      -0.60850000      -1.18400000
C        2.10340000      -0.26670000      -0.48960000
C        1.24380000      -0.60380000       0.78220000
C        0.97750000      -2.09370000       0.49210000
O        1.10670000      -3.07260000       1.19010000
N        0.58260000      -2.03630000      -0.83310000
C        0.63410000      -3.14640000      -1.75190000
H        0.83180000       2.09470000      -0.11990000
H       -0.84130000       1.91230000      -0.65770000
H       -0.45880000       1.88480000       1.06590000
H       -0.94170000      -0.40940000       0.24860000
H        0.52040000      -0.38320000      -2.22480000
H        2.95280000      -0.91690000      -0.71350000
H        2.40350000       0.77930000      -0.55480000
H        1.53690000      -0.35170000       1.79870000
H        0.66370000      -4.06110000      -1.15530000
H       -0.25160000      -3.17320000      -2.39620000
H        1.52760000      -3.11790000      -2.39210000
