20
Properties=species:S:1:pos:R:3 gdb_58684=T pbc="F F F"
C        0.22440000       1.16350000      -0.40640000
N       -0.03200000      -0.16130000       0.15790000
C        0.54510000      -0.31820000       1.50040000
C       -1.39910000      -0.59210000       0.06580000
C       -1.86610000      -1.08860000      -1.31630000
C       -1.53940000      -2.09650000      -0.27600000
O       -0.37060000      -2.83310000      -0.33330000
C       -2.44530000       0.01200000       0.92170000
O       -2.27110000       0.91550000       1.70590000
H        1.30540000       1.33060000      -0.45180000
H       -0.17060000       1.21340000      -1.42490000
H       -0.22890000       1.97140000       0.18520000
H        0.12730000       0.38680000       2.22940000
H        0.36770000      -1.33870000       1.84960000
H        1.62690000      -0.16200000       1.43810000
H       -2.90300000      -0.91660000      -1.58470000
H       -1.15260000      -0.95340000      -2.12140000
H       -2.34600000      -2.65190000       0.19160000
H        0.33560000      -2.17370000      -0.44360000
H       -3.45540000      -0.44680000       0.79100000
