18
Properties=species:S:1:pos:R:3 gdb_103250=T pbc="F F F"
C       -0.08870000       1.59940000      -0.18010000
C       -0.08070000       0.08550000      -0.19390000
C       -1.33060000      -0.53590000       0.41880000
O       -1.41540000      -0.25180000       1.79900000
C        0.65640000      -0.74610000      -1.15890000
C        1.96380000      -0.12120000      -1.64190000
C        2.31090000      -0.01170000      -0.14770000
O        3.24040000       0.37550000       0.48750000
N        1.11620000      -0.69620000       0.31410000
H        0.86330000       2.04630000      -0.47090000
H       -0.86150000       1.96870000      -0.86290000
H       -0.33650000       1.94440000       0.82710000
H       -2.22530000      -0.10710000      -0.04570000
H       -1.33100000      -1.61880000       0.22730000
H       -0.59880000      -0.58940000       2.18860000
H        0.25020000      -1.67210000      -1.55050000
H        2.62190000      -0.83400000      -2.14560000
H        1.92020000       0.80120000      -2.22450000
