19
Properties=species:S:1:pos:R:3 gdb_84237=T pbc="F F F"
C        0.19580000       1.42100000      -0.12800000
C       -0.01180000      -0.05760000       0.11090000
C       -0.69910000      -0.85160000      -1.09550000
C       -0.86570000      -2.41990000      -1.02390000
C       -0.90470000      -2.12250000       0.47740000
C        0.26220000      -2.15700000       1.14620000
C        0.88560000      -0.75280000       1.15590000
O        2.26070000      -0.81560000       0.82040000
C       -1.36180000      -0.67350000       0.24080000
H        1.19450000       1.61100000      -0.53360000
H       -0.54020000       1.83320000      -0.82410000
H        0.11280000       1.97630000       0.81360000
H       -0.90830000      -0.28040000      -1.99740000
H       -1.81380000      -2.68790000      -1.50530000
H       -0.06500000      -3.07540000      -1.37920000
H        0.94070000      -3.00640000       1.12700000
H        0.85700000      -0.19030000       2.09840000
H        2.32390000      -1.24270000      -0.04230000
H       -2.30270000      -0.20630000       0.50220000
