25
Properties=species:S:1:pos:R:3 gdb_96359=T pbc="F F F"
C       -0.17540000       1.54640000      -0.06380000
C        0.03340000       0.03050000       0.02060000
C        0.75750000      -0.48670000      -1.24020000
C        0.91240000      -2.01260000      -1.24470000
C        1.62130000      -2.50290000       0.02400000
C        0.90540000      -1.99130000       1.28180000
C        0.76200000      -0.47340000       1.27360000
C        1.90500000       0.31460000       1.87440000
C        0.58990000       0.19780000       2.61170000
H        0.77540000       2.08640000      -0.12710000
H       -0.74640000       1.79290000      -0.96510000
H       -0.73280000       1.93880000       0.79130000
H       -0.96560000      -0.43450000       0.03570000
H        0.21250000      -0.16030000      -2.13440000
H        1.75070000      -0.01840000      -1.29180000
H       -0.08240000      -2.47630000      -1.30550000
H        1.45950000      -2.33500000      -2.13810000
H        1.67360000      -3.59760000       0.03610000
H        2.65690000      -2.13710000       0.02530000
H       -0.09420000      -2.44690000       1.33900000
H        1.44280000      -2.30880000       2.18300000
H        2.75820000      -0.23830000       2.25450000
H        2.16200000       1.27980000       1.45280000
H       -0.02750000       1.08560000       2.68520000
H        0.55050000      -0.43710000       3.49130000
