16
Properties=species:S:1:pos:R:3 gdb_71047=T pbc="F F F"
C        0.07130000       1.43230000      -0.15930000
C       -0.06230000      -0.04900000       0.03700000
O        0.05580000      -0.79850000      -1.30350000
C       -0.56030000      -1.78770000      -0.53870000
N        0.14020000      -2.72480000      -0.02080000
C        0.23010000      -2.24490000       1.33700000
C       -0.80640000      -1.21040000       1.75830000
C        0.58040000      -0.72520000       1.32710000
C       -1.33880000      -0.81710000       0.39700000
H        1.10410000       1.69370000      -0.40930000
H       -0.58090000       1.76270000      -0.97120000
H       -0.20460000       1.95540000       0.76090000
H        0.70970000      -2.87480000       2.07700000
H       -1.29760000      -1.17390000       2.71920000
H        1.38620000      -0.31190000       1.91770000
H       -2.33590000      -0.47760000       0.13680000
