15
Properties=species:S:1:pos:R:3 gdb_49590=T pbc="F F F"
O       -0.71400000       0.89650000       0.41420000
C        0.24220000       0.96850000      -0.31320000
C        1.36460000       1.95850000      -0.16050000
C        1.46520000       3.02900000      -1.27420000
O        0.28830000       3.83150000      -1.18670000
C        1.36510000       4.11060000      -0.28550000
C        1.25180000       3.12510000       0.89970000
C        0.00700000       3.25740000       1.75640000
O        0.03860000       3.21850000       2.96030000
H        0.35500000       0.28460000      -1.18530000
H        2.30960000       1.41400000      -0.05240000
H        1.96980000       2.97310000      -2.23060000
H        1.77300000       5.11380000      -0.29100000
H        2.12630000       3.14380000       1.55290000
H       -0.92850000       3.44610000       1.19790000
