13
Properties=species:S:1:pos:R:3 gdb_3095=T pbc="F F F"
O        0.04430000       1.35880000      -0.03450000
C       -0.02800000      -0.02650000      -0.01520000
C       -0.41570000      -0.68960000       1.26430000
O       -0.75710000       0.17620000       2.31730000
C       -1.39710000      -0.73590000       0.10020000
C       -2.64990000       0.05680000       0.11310000
O       -3.68190000      -0.33170000      -0.38000000
H       -0.20620000       1.65920000       0.85100000
H        0.70160000      -0.48700000      -0.67350000
H        0.03500000      -1.63250000       1.56520000
H        0.01990000       0.27900000       2.87820000
H       -1.49590000      -1.69390000      -0.39860000
H       -2.58600000       1.05030000       0.59810000
