15
Properties=species:S:1:pos:R:3 gdb_25034=T pbc="F F F"
O        0.11250000       0.04260000       0.28770000
C       -0.00680000       1.22840000       0.15800000
N       -1.10700000       1.98570000      -0.16650000
C       -0.77030000       3.34070000      -0.21080000
C        0.53290000       3.42100000       0.09730000
O        1.02350000       2.14530000       0.32350000
C        1.46690000       4.54090000       0.21140000
C        2.62160000       4.47260000       1.15160000
N        2.84920000       4.41570000      -0.29840000
H       -2.00520000       1.57470000      -0.34770000
H       -1.48130000       4.11090000      -0.45320000
H        1.00720000       5.50530000       0.01300000
H        2.96470000       5.38210000       1.63620000
H        2.73830000       3.56330000       1.73310000
H        3.01300000       3.44940000      -0.57440000
