15
Properties=species:S:1:pos:R:3 gdb_28694=T pbc="F F F"
O        0.41370000       1.24810000       0.30410000
C        0.15860000      -0.04720000       0.00070000
C       -0.25750000      -0.68940000      -1.14090000
C       -0.31850000      -2.08080000      -0.81770000
C        0.05130000      -2.23230000       0.49320000
C        0.10960000      -3.45470000       1.35760000
C        1.36230000      -3.56560000       2.11550000
N        2.34030000      -3.61130000       2.72940000
N        0.33340000      -0.96900000       0.99130000
H        0.29610000       1.77610000      -0.49130000
H       -0.48940000      -0.22720000      -2.08750000
H       -0.61520000      -2.87890000      -1.48140000
H       -0.71640000      -3.49090000       2.08310000
H        0.00160000      -4.33970000       0.72310000
H        0.72100000      -0.75910000       1.89630000
