19
Properties=species:S:1:pos:R:3 gdb_17567=T pbc="F F F"
C       -0.04410000       1.52250000       0.02660000
C        0.07740000       0.02120000       0.06600000
C        0.90920000      -0.82100000      -0.95970000
C        0.72370000      -1.91700000       0.14980000
C        0.88420000      -0.74890000       1.15480000
C       -0.79680000      -2.09100000       0.03950000
C       -1.70050000      -1.49350000       1.05530000
N       -1.25170000      -0.67910000      -0.08990000
H        0.94150000       1.99780000       0.04570000
H       -0.56840000       1.83990000      -0.88000000
H       -0.61460000       1.88930000       0.88710000
H        0.44450000      -0.99830000      -1.93280000
H        1.94130000      -0.48080000      -1.07200000
H        1.33840000      -2.81530000       0.19590000
H        1.91620000      -0.39560000       1.19510000
H        0.50330000      -0.83970000       2.17290000
H       -1.18240000      -2.80550000      -0.68380000
H       -2.75730000      -1.74270000       1.00380000
H       -1.35310000      -1.27970000       2.05930000
