19
Properties=species:S:1:pos:R:3 gdb_109623=T pbc="F F F"
C        0.29030000       1.11010000       0.50700000
N       -0.38810000       0.27490000      -0.47580000
C        0.47340000      -0.36930000      -1.41100000
C        1.29420000      -1.62550000      -1.13220000
C        1.31000000      -2.31540000       0.21280000
C        0.02430000      -1.69310000      -1.99190000
O       -1.14160000      -2.21370000      -1.42010000
C        0.15640000      -1.93140000      -3.41210000
N        0.27760000      -2.14730000      -4.54230000
H        1.02740000       0.57800000       1.13060000
H        0.81680000       1.92250000      -0.00670000
H       -0.45500000       1.56440000       1.16560000
H       -1.02250000      -0.38800000      -0.05010000
H        0.92130000       0.32060000      -2.12270000
H        2.21770000      -1.70290000      -1.69950000
H        0.39440000      -2.12630000       0.77710000
H        1.41950000      -3.40040000       0.10440000
H        2.15430000      -1.95950000       0.81070000
H       -1.06740000      -3.17470000      -1.39280000
