13
Properties=species:S:1:pos:R:3 gdb_21436=T pbc="F F F"
N        0.09060000       1.38330000       0.13820000
C        0.06140000       0.12330000       0.07960000
O        1.10800000      -0.74980000      -0.19370000
N        0.71030000      -2.13900000       0.01450000
C       -0.54320000      -2.00260000       0.25350000
C       -1.81920000      -2.58120000       0.83960000
C       -2.25390000      -1.06860000       0.98340000
N       -1.02040000      -0.72980000       0.23220000
H        1.03420000       1.73120000      -0.01670000
H       -2.42470000      -3.16330000       0.14420000
H       -1.69130000      -3.12950000       1.77260000
H       -3.17100000      -0.76970000       0.47480000
H       -2.24680000      -0.69560000       2.00980000
