15
Properties=species:S:1:pos:R:3 gdb_29460=T pbc="F F F"
N        0.01400000       1.43920000       0.16640000
C        0.04000000       0.03670000       0.04010000
C       -1.04060000      -0.82050000       0.00590000
N       -0.58620000      -2.15400000      -0.03140000
C        0.76340000      -2.08610000      -0.02910000
C        1.21530000      -0.78670000       0.01750000
C        2.65120000      -0.91740000       0.02090000
C        2.90920000      -2.25140000      -0.02410000
O        1.73890000      -3.00890000      -0.05570000
H        0.70330000       1.88570000      -0.42670000
H       -0.89590000       1.82520000      -0.05410000
H       -2.09740000      -0.60970000       0.01180000
H       -1.16210000      -2.97520000      -0.04260000
H        3.40120000      -0.14250000       0.05890000
H        3.81610000      -2.83110000      -0.03740000
