16
Properties=species:S:1:pos:R:3 gdb_3326=T pbc="F F F"
O       -0.02910000       1.39130000      -0.21570000
C        0.03340000       0.00040000       0.08090000
C       -1.37710000      -0.54770000      -0.00040000
C       -2.07230000      -0.61860000      -1.41050000
C       -2.23630000      -2.12810000      -1.20660000
N       -0.86560000      -2.67500000      -1.04990000
C       -1.55850000      -2.06890000       0.11690000
H        0.87080000       1.72030000      -0.29380000
H        0.67100000      -0.53800000      -0.63250000
H        0.43980000      -0.17200000       1.09210000
H       -2.01740000      -0.01830000       0.71090000
H       -3.01730000      -0.07320000      -1.43590000
H       -1.45850000      -0.32770000      -2.26610000
H       -3.04570000      -2.76460000      -1.54280000
H       -0.95810000      -3.68580000      -0.95100000
H       -1.72690000      -2.64770000       1.01730000
