17
Properties=species:S:1:pos:R:3 gdb_5576=T pbc="F F F"
C        0.00670000       1.47970000       0.09690000
N       -0.13170000       0.03010000       0.06450000
C        0.56640000      -0.70210000       1.02930000
C        0.69950000      -2.07380000       1.10680000
C        0.20610000      -3.17900000       0.23820000
N        1.44200000      -2.27410000       2.26380000
C        1.69420000      -1.06000000       2.81310000
N        1.18400000      -0.08500000       2.09040000
H        1.04180000       1.83080000      -0.02970000
H       -0.61310000       1.90630000      -0.69660000
H       -0.34870000       1.85740000       1.05790000
H       -0.00610000      -0.34440000      -0.86510000
H        0.98530000      -3.61150000      -0.40500000
H       -0.22350000      -4.00080000       0.82440000
H       -0.58810000      -2.80500000      -0.41470000
H        1.72550000      -3.16660000       2.63140000
H        2.24910000      -0.94110000       3.73140000
