20
Properties=species:S:1:pos:R:3 gdb_104100=T pbc="F F F"
C       -0.03850000       1.57350000      -0.00400000
C       -0.03490000       0.04390000      -0.03800000
C       -1.48370000      -0.49320000      -0.05420000
O       -2.18330000      -0.20130000       1.14170000
C        0.77800000      -0.54670000      -1.22410000
C        1.48700000      -1.78610000      -0.65280000
C        1.56980000      -1.51790000       0.85380000
O        2.26510000      -2.08210000       1.66840000
N        0.67960000      -0.50790000       1.11550000
H        0.97700000       1.96230000       0.11310000
H       -0.45600000       1.97330000      -0.93380000
H       -0.65730000       1.93640000       0.82200000
H       -2.04280000      -0.01260000      -0.86420000
H       -1.47100000      -1.57590000      -0.25240000
H       -1.79800000      -0.74880000       1.83420000
H        0.13380000      -0.76910000      -2.07940000
H        1.51610000       0.19020000      -1.55500000
H        0.91520000      -2.70770000      -0.80760000
H        2.48570000      -1.95620000      -1.05810000
H        0.61500000      -0.11240000       2.04050000
