13
Properties=species:S:1:pos:R:3 gdb_46833=T pbc="F F F"
O       -0.01980000       0.01170000       0.23880000
C       -0.00420000       1.18170000       0.01630000
O       -1.12050000       1.92930000      -0.18610000
C       -0.82570000       3.25980000      -0.64610000
C        0.67260000       3.43760000      -0.49400000
N        1.10240000       3.21680000       0.88390000
C        1.20050000       2.09830000      -0.10610000
C        2.47530000       1.58290000      -0.50200000
N        3.51540000       1.18530000      -0.81200000
H       -1.13700000       3.34460000      -1.69190000
H       -1.39210000       3.96450000      -0.03250000
H        1.22210000       4.10190000      -1.15040000
H        2.03680000       3.59950000       1.02350000
