19
Properties=species:S:1:pos:R:3 gdb_39873=T pbc="F F F"
C       -0.00680000       1.50700000       0.01040000
O        1.16550000       0.67330000      -0.00610000
C       -0.11050000       0.04840000       0.00320000
C       -0.46990000      -0.94770000       1.10560000
C       -2.00280000      -1.07450000       1.31240000
C       -2.12190000      -1.91050000       0.01220000
C       -2.02890000      -1.05980000      -1.28060000
C       -0.49210000      -0.93510000      -1.10310000
C       -0.55620000      -2.06560000      -0.00440000
H       -0.16960000       2.06090000       0.93470000
H       -0.18810000       2.07130000      -0.90400000
H        0.18620000      -0.96960000       1.97590000
H       -2.21670000      -1.69430000       2.18820000
H       -2.58780000      -0.15140000       1.38660000
H       -2.82690000      -2.74190000       0.01450000
H       -2.26040000      -1.66960000      -2.15890000
H       -2.61510000      -0.13590000      -1.33250000
H        0.14640000      -0.94700000      -1.98660000
H        0.00590000      -2.99530000      -0.01540000
