25
Properties=species:S:1:pos:R:3 gdb_89460=T pbc="F F F"
C        0.21430000       1.66280000      -0.03520000
C        0.06810000       0.14980000       0.05220000
C        0.87150000      -0.75440000      -0.92920000
C        1.22480000      -1.72930000       0.23810000
C        0.70070000      -3.14430000       0.12230000
C        2.64740000      -1.50420000       0.80060000
C        2.12740000      -0.29390000       1.62970000
C        0.65290000      -0.64900000       1.25150000
C       -0.27030000      -0.97630000       2.40600000
H        1.26390000       1.97450000      -0.01080000
H       -0.21440000       2.04050000      -0.97040000
H       -0.30220000       2.16490000       0.79090000
H       -0.99720000      -0.10270000      -0.02390000
H        0.29150000      -1.19220000      -1.74640000
H        1.74830000      -0.26210000      -1.36380000
H        1.23660000      -3.69590000      -0.66080000
H        0.82500000      -3.69940000       1.05920000
H       -0.36430000      -3.16240000      -0.13750000
H        2.97480000      -2.33130000       1.43880000
H        3.43740000      -1.30660000       0.06900000
H        2.33690000      -0.35130000       2.70100000
H        2.47050000       0.68220000       1.27780000
H       -0.51800000      -0.07380000       2.97970000
H       -1.21260000      -1.41380000       2.05680000
H        0.18940000      -1.68720000       3.10270000
