23
Properties=species:S:1:pos:R:3 gdb_120572=T pbc="F F F"
C        0.02850000       1.55890000      -0.12080000
C        0.18330000       0.03680000      -0.07370000
C        0.50560000      -0.49060000       1.33240000
C        0.64370000      -1.99840000       1.36340000
C        1.94880000      -2.68610000       1.07130000
C        1.36820000      -2.75210000       2.48090000
C        2.07150000      -2.00530000       3.60660000
C        0.77890000      -4.00240000       2.88640000
C        0.28780000      -5.04100000       3.24540000
H        0.94820000       2.06150000       0.19940000
H       -0.20390000       1.90540000      -1.13260000
H       -0.77790000       1.89620000       0.54000000
H       -0.73890000      -0.43790000      -0.43360000
H        0.97530000      -0.27810000      -0.76480000
H        1.42680000      -0.01410000       1.68780000
H       -0.28770000      -0.17850000       2.02560000
H       -0.23690000      -2.52080000       0.99810000
H        1.94850000      -3.59190000       0.47670000
H        2.83030000      -2.06380000       0.94750000
H        2.54650000      -1.09000000       3.24630000
H        1.36710000      -1.73610000       4.40010000
H        2.84900000      -2.63530000       4.04940000
H       -0.14640000      -5.95820000       3.55670000
