23
Properties=species:S:1:pos:R:3 gdb_87821=T pbc="F F F"
C       -0.12940000       1.49600000       0.01010000
C        0.01110000      -0.00990000       0.04620000
C        1.36510000      -0.65890000      -0.16190000
C        0.70640000      -0.70230000       1.18630000
C        1.27730000      -0.09720000       2.48850000
C        0.80440000      -1.35580000       3.22970000
C       -0.67570000      -1.55380000       3.03160000
C        0.26610000      -1.96080000       1.92660000
C        0.35610000      -3.36020000       1.39030000
H        0.73900000       1.98490000       0.46390000
H       -0.21370000       1.86280000      -1.01930000
H       -1.01890000       1.83070000       0.55610000
H       -0.83230000      -0.55010000      -0.38010000
H        1.41540000      -1.57310000      -0.74560000
H        2.22600000      -0.00730000      -0.28620000
H        2.36610000       0.00060000       2.45980000
H        0.84760000       0.85110000       2.83160000
H        1.34260000      -1.84820000       4.03120000
H       -1.11200000      -2.37500000       3.59300000
H       -1.33500000      -0.69620000       2.91310000
H       -0.39060000      -3.54100000       0.60660000
H        1.34370000      -3.56250000       0.96070000
H        0.17880000      -4.09490000       2.18260000
