21
Properties=species:S:1:pos:R:3 gdb_118925=T pbc="F F F"
C       -0.09170000       1.55560000       0.07710000
C       -0.03840000       0.03450000      -0.03440000
N        0.78820000      -0.52140000       1.04280000
C        0.80440000      -1.97540000       1.15770000
C        1.34890000      -2.74440000      -0.05020000
C        1.35040000      -2.43100000       2.53700000
O        0.02410000      -2.91500000       2.91650000
C       -0.51060000      -2.52240000       1.71280000
N       -1.67880000      -2.61770000       1.26590000
H        0.90680000       1.99730000      -0.02660000
H       -0.72280000       1.97820000      -0.71060000
H       -0.49320000       1.85690000       1.04860000
H       -1.04150000      -0.38860000       0.07190000
H        0.31850000      -0.24510000      -1.04070000
H        1.74470000      -0.19090000       0.93910000
H        2.37290000      -2.42380000      -0.27470000
H        1.36080000      -3.82280000       0.13590000
H        0.72930000      -2.56660000      -0.93240000
H        2.07460000      -3.24940000       2.52990000
H        1.67130000      -1.61880000       3.19180000
H       -2.30600000      -3.04810000       1.94830000
