18
Properties=species:S:1:pos:R:3 gdb_16344=T pbc="F F F"
C       -0.35340000       1.31320000      -0.04930000
O        0.22980000       0.02920000       0.11950000
C        0.73180000      -0.51120000      -1.03920000
C       -0.13990000      -1.06180000      -2.15320000
C        0.84890000      -1.95050000      -1.44440000
O        2.16100000      -1.76920000      -1.98150000
C        2.19200000      -0.38630000      -1.50430000
C        2.61940000       0.60870000      -2.56190000
H        0.38780000       2.05930000      -0.36710000
H       -1.16540000       1.28920000      -0.78840000
H       -0.75720000       1.60730000       0.92180000
H       -1.17180000      -1.20950000      -1.84790000
H        0.00870000      -0.80560000      -3.19830000
H        0.61790000      -2.88210000      -0.94270000
H        2.84810000      -0.33050000      -0.62560000
H        1.93020000       0.61500000      -3.41060000
H        2.66290000       1.61750000      -2.13730000
H        3.61750000       0.35730000      -2.93500000
