23
Properties=species:S:1:pos:R:3 gdb_104429=T pbc="F F F"
C        0.20370000       1.57760000      -0.08860000
C        0.04180000       0.06130000       0.04940000
C       -1.41290000      -0.44850000       0.05720000
O       -1.99170000       0.03550000      -1.17310000
C       -1.41830000      -1.99120000       0.06610000
C       -2.80990000      -2.55920000       0.35620000
C       -3.29690000      -2.10810000       1.73910000
C       -3.04220000      -0.64120000       1.96430000
C       -2.20860000       0.09300000       1.22490000
H        1.26000000       1.83850000      -0.20600000
H       -0.34060000       1.94210000      -0.96260000
H       -0.16560000       2.11470000       0.79090000
H        0.54710000      -0.42970000      -0.79170000
H        0.53550000      -0.29220000       0.96200000
H       -2.94790000       0.00680000      -1.07230000
H       -1.04920000      -2.33530000      -0.90520000
H       -0.71540000      -2.34840000       0.83030000
H       -3.51140000      -2.20530000      -0.41090000
H       -2.80390000      -3.65190000       0.28890000
H       -4.36530000      -2.32280000       1.86500000
H       -2.78890000      -2.68830000       2.52500000
H       -3.57820000      -0.17060000       2.78640000
H       -2.10050000       1.15420000       1.43170000
