16
Properties=species:S:1:pos:R:3 gdb_42590=T pbc="F F F"
O        0.01340000       0.00090000       0.01410000
C       -0.02450000       1.19680000       0.00870000
C       -1.19510000       2.18610000       0.05230000
C       -0.78880000       3.01830000       1.28090000
C       -0.31160000       4.14180000       0.44920000
C       -0.66830000       3.39440000      -0.85110000
C        0.71660000       2.93990000      -1.35530000
C        1.10320000       2.25100000      -0.02820000
N        0.68440000       3.22040000       1.04360000
H       -2.20740000       1.81270000      -0.06340000
H       -1.15850000       2.95970000       2.29720000
H       -0.23670000       5.20560000       0.64040000
H       -1.36970000       3.83600000      -1.55470000
H        0.68330000       2.23780000      -2.19550000
H        1.36570000       3.78160000      -1.61310000
H        2.12050000       1.89530000       0.10920000
