13
Properties=species:S:1:pos:R:3 gdb_25417=T pbc="F F F"
O       -0.09380000      -0.03130000       0.00070000
C       -0.03210000       1.17700000       0.00960000
C        1.21520000       1.94400000       0.00180000
C        1.21680000       3.31380000       0.01280000
N        2.38490000       3.96950000       0.00500000
C        3.66560000       3.32840000      -0.01450000
O        4.65580000       4.01670000      -0.02000000
N        3.64630000       1.93920000      -0.02540000
C        2.50490000       1.31740000      -0.01760000
H       -0.95400000       1.80280000       0.02500000
H        0.30770000       3.90840000       0.02780000
H        2.42250000       4.98000000       0.01270000
H        2.52910000       0.22830000      -0.02660000
