9
Properties=species:S:1:pos:R:3 gdb_36=T pbc="F F F"
C        0.01470000       1.47890000      -0.03510000
N        0.18710000       0.03830000      -0.02910000
C        0.45700000      -0.66860000       1.10070000
O        0.58460000      -0.19880000       2.21120000
H        0.76030000       1.96740000      -0.67200000
H       -0.98460000       1.75980000      -0.38490000
H        0.14270000       1.82390000       0.99150000
H        0.10390000      -0.46940000      -0.89460000
H        0.55050000      -1.75250000       0.88870000
