17
Properties=species:S:1:pos:R:3 gdb_85785=T pbc="F F F"
N        0.03410000       1.48160000       0.18320000
C        0.00120000       0.04910000      -0.00880000
C       -1.41080000      -0.61760000      -0.07090000
N       -1.01870000      -1.18700000      -1.36520000
C       -1.73610000      -1.98750000      -2.25940000
N       -0.97580000      -2.36920000      -3.34230000
N       -2.94000000      -2.28660000      -1.95590000
C        0.21400000      -0.56740000      -1.42210000
O        1.05360000      -0.53600000      -2.29150000
H        0.99330000       1.81370000       0.15730000
H       -0.45560000       1.95500000      -0.57130000
H        0.65410000      -0.42480000       0.72970000
H       -1.63630000      -1.36700000       0.68970000
H       -2.23680000       0.09370000      -0.14620000
H       -0.12410000      -1.84770000      -3.51210000
H       -1.47850000      -2.68750000      -4.15400000
H       -3.36070000      -2.88240000      -2.66710000
