15
Properties=species:S:1:pos:R:3 gdb_46242=T pbc="F F F"
O       -0.05440000       0.07230000      -0.20970000
C        0.00680000       1.23440000       0.02370000
O       -0.99740000       2.06660000       0.47970000
C       -0.10330000       3.22680000       0.51390000
C        1.02400000       2.34270000       0.00100000
C        2.47690000       2.26080000       0.34870000
C        2.07250000       2.62160000      -1.06600000
C        2.27330000       1.70910000      -2.15260000
C        2.45110000       0.95820000      -3.07380000
H       -0.45700000       4.01050000      -0.15990000
H        0.00040000       3.60620000       1.53330000
H        2.89650000       3.04690000       0.96680000
H        2.88210000       1.26870000       0.51200000
H        2.16830000       3.67380000      -1.32290000
H        2.59640000       0.28260000      -3.88010000
