19
Properties=species:S:1:pos:R:3 gdb_101803=T pbc="F F F"
N       -0.14420000       1.34180000      -0.18620000
C        0.02950000      -0.02020000       0.03830000
O        1.11400000      -0.51950000       0.27440000
N       -1.13330000      -0.75250000      -0.05060000
C       -1.07240000      -2.20110000      -0.05040000
C       -2.47740000      -2.77020000       0.10580000
O       -3.35010000      -2.27460000      -0.92510000
C       -2.52130000      -4.29740000       0.11270000
O       -3.84820000      -4.76330000       0.22120000
H        0.65620000       1.88110000       0.10800000
H       -1.02860000       1.74670000       0.08340000
H       -1.91730000      -0.36160000      -0.55170000
H       -0.61400000      -2.59130000      -0.97500000
H       -0.43010000      -2.52310000       0.77350000
H       -2.92340000      -2.39810000       1.03430000
H       -2.98040000      -2.55030000      -1.77410000
H       -2.03190000      -4.67750000      -0.80360000
H       -1.96100000      -4.69120000       0.96740000
H       -4.37460000      -4.18730000      -0.34780000
