14
Properties=species:S:1:pos:R:3 gdb_27455=T pbc="F F F"
O        0.03210000       1.29090000      -0.32720000
C       -0.02790000      -0.03230000      -0.06480000
C       -1.25830000      -0.61940000      -0.03280000
C       -1.52050000      -2.03280000       0.14320000
N       -2.65210000      -2.45850000       0.57830000
C       -0.48090000      -2.94590000      -0.40780000
N        0.79380000      -2.87970000      -0.30220000
C        1.48070000      -1.82410000       0.24060000
N        1.19410000      -0.56670000       0.25730000
H        0.95220000       1.55290000      -0.18770000
H       -2.12530000       0.02360000      -0.13780000
H       -2.69590000      -3.47990000       0.52910000
H       -0.87700000      -3.80230000      -0.96300000
H        2.46790000      -2.09720000       0.61030000
