14
Properties=species:S:1:pos:R:3 gdb_124312=T pbc="F F F"
C       -0.10080000       1.50830000      -0.04220000
C        0.00080000       0.00390000       0.09400000
O       -0.03010000      -0.56700000       1.15440000
C        0.15500000      -0.76900000      -1.23020000
C        0.10670000      -2.24110000      -1.03890000
N        1.13560000      -3.03740000      -1.06060000
O        0.62390000      -4.26650000      -0.82990000
N       -0.75770000      -4.15620000      -0.67580000
N       -1.06210000      -2.94510000      -0.80150000
H        0.74120000       1.90360000      -0.62100000
H       -1.01470000       1.77330000      -0.58650000
H       -0.12060000       1.96700000       0.94650000
H       -0.63390000      -0.45440000      -1.92230000
H        1.11010000      -0.48980000      -1.68730000
