17
Properties=species:S:1:pos:R:3 gdb_53103=T pbc="F F F"
C        0.02010000       1.46120000       0.06190000
C        0.00340000       0.00640000       0.01560000
C       -0.00880000      -1.19770000      -0.05560000
C       -0.03040000      -2.62800000      -0.07150000
C       -0.40790000      -3.34480000       1.20920000
O       -0.68160000      -2.63640000       2.36090000
C       -1.38630000      -3.38320000       0.04290000
C       -2.61560000      -2.65930000       0.11120000
C       -3.65600000      -2.05940000       0.17950000
H        0.71390000       1.83250000       0.82410000
H        0.32940000       1.88030000      -0.90190000
H       -0.97400000       1.86000000       0.29170000
H        0.70620000      -3.10980000      -0.70740000
H        0.11110000      -4.27080000       1.43450000
H       -0.80120000      -1.70750000       2.12070000
H       -1.42370000      -4.31540000      -0.51400000
H       -4.57620000      -1.53320000       0.23530000
