16
Properties=species:S:1:pos:R:3 gdb_19857=T pbc="F F F"
C       -0.05520000       1.56900000       0.02840000
C        1.40270000       1.98190000       0.02570000
C        2.25400000       0.95520000      -0.00300000
C        1.53660000      -0.36040000       0.00490000
C        1.30980000      -1.07580000       1.37010000
O        0.78420000      -0.11630000       2.28880000
C       -0.11910000      -0.72240000       1.35960000
C        0.00930000       0.02580000       0.01600000
H       -0.57370000       1.95050000       0.91680000
H       -0.58880000       1.97000000      -0.84240000
H        1.69760000       3.02630000       0.05030000
H        3.33480000       1.04450000      -0.00150000
H        1.83740000      -1.06330000      -0.77750000
H        1.83030000      -1.92920000       1.79020000
H       -0.98030000      -1.23550000       1.77370000
H       -0.57510000      -0.43940000      -0.77930000
