15
Properties=species:S:1:pos:R:3 gdb_61693=T pbc="F F F"
C       -0.05180000       1.59450000       0.01390000
C        0.01600000       0.05300000       0.03640000
O        0.67510000      -0.40230000       1.22800000
C        2.02220000      -0.22990000       1.32520000
N        2.57030000      -0.37370000       2.44850000
C       -1.32980000      -0.52440000       0.06000000
C       -2.44750000      -0.95850000       0.06390000
C        0.71880000      -0.43350000      -1.18120000
N        1.27550000      -0.78100000      -2.13180000
H        0.95600000       2.01540000      -0.01690000
H       -0.60780000       1.93620000      -0.86130000
H       -0.55800000       1.92830000       0.92140000
H        2.51510000      -0.00700000       0.37260000
H        3.57880000      -0.26200000       2.36320000
H       -3.43260000      -1.35770000       0.07180000
