20
Properties=species:S:1:pos:R:3 gdb_61572=T pbc="F F F"
N       -0.12520000       1.15350000      -0.24770000
H        0.88820000       1.14250000      -0.23350000
H       -0.39680000       1.83410000      -0.95240000
H       -1.53500000      -0.10750000      -0.20360000
C       -0.66580000       1.54040000       1.06770000
C       -0.66210000       3.04200000       1.39150000
C        0.72730000       3.62390000       1.53850000
C        1.48760000       4.16210000       0.34680000
C        0.95550000       5.10570000       1.39650000
C       -2.07950000       0.93550000       1.22680000
O       -2.86440000       1.29860000       2.06210000
O       -2.33410000      -0.05820000       0.36660000
H       -0.05580000       1.02230000       1.82070000
H       -1.20960000       3.57940000       0.60430000
H       -1.23780000       3.18050000       2.31180000
H        1.33380000       3.13000000       2.29530000
H        2.55880000       4.00030000       0.29380000
H        0.99260000       4.15850000      -0.61930000
H        0.10300000       5.72430000       1.13530000
H        1.66200000       5.58550000       2.06430000
