17
Properties=species:S:1:pos:R:3 gdb_66905=T pbc="F F F"
O       -0.07230000       1.38830000       0.04950000
C        0.01100000       0.00530000       0.01180000
C       -0.20680000      -0.84220000      -1.20420000
C        0.91020000      -1.78900000      -1.29940000
C        1.69580000      -1.71880000      -0.21000000
C        1.09400000      -0.78120000       0.82720000
C        0.26100000      -1.74760000       1.65850000
C       -0.99380000      -1.82210000       1.18360000
C       -1.19990000      -0.85010000       0.10290000
H        0.63280000       1.74520000      -0.50270000
H       -0.70450000      -0.44500000      -2.08110000
H        1.04020000      -2.48130000      -2.12320000
H        2.55240000      -2.34900000      -0.00180000
H        1.79680000      -0.15440000       1.38210000
H        0.69430000      -2.38870000       2.41700000
H       -1.74790000      -2.53130000       1.50350000
H       -2.17720000      -0.44930000      -0.13700000
