18
Properties=species:S:1:pos:R:3 gdb_88522=T pbc="F F F"
C       -0.32230000       1.35160000      -0.03920000
N       -0.01640000      -0.06180000       0.15520000
C        1.33990000      -0.51490000      -0.12790000
C        0.83380000      -0.46110000       1.27270000
C        1.41280000       0.52220000       2.24840000
C        2.85480000       0.47560000       2.59670000
O        2.34450000       1.51170000       1.77660000
C        0.50780000       1.06010000       3.31940000
O       -0.59320000       0.63590000       3.55300000
H        0.51980000       2.03010000       0.15870000
H       -0.64220000       1.49570000      -1.07570000
H       -1.15600000       1.62480000       0.61460000
H        1.42830000      -1.46760000      -0.64360000
H        2.08070000       0.23420000      -0.40210000
H        0.50490000      -1.37590000       1.76240000
H        3.19060000       0.78440000       3.58580000
H        3.46820000      -0.27070000       2.09590000
H        0.95850000       1.90510000       3.88680000
