25
Properties=species:S:1:pos:R:3 gdb_118578=T pbc="F F F"
C       -0.07810000       1.59930000       0.08330000
C       -0.09060000       0.06840000       0.05450000
C        0.81570000      -0.55260000       1.12540000
C        0.84000000      -2.09330000       1.12780000
C        1.68620000      -2.65520000      -0.03050000
O        1.48860000      -4.03390000      -0.25970000
C        1.35550000      -2.59020000       2.48020000
O        1.37170000      -4.01060000       2.50640000
C        1.88950000      -4.53930000       3.70660000
H        0.92920000       1.99100000      -0.09690000
H       -0.73920000       2.01760000      -0.68200000
H       -0.41070000       1.98070000       1.05530000
H       -1.11650000      -0.29350000       0.20130000
H        0.21230000      -0.27730000      -0.94080000
H        1.84090000      -0.17450000       1.00100000
H        0.48420000      -0.19410000       2.10960000
H       -0.18300000      -2.47110000       0.99840000
H        1.42350000      -2.14870000      -0.96510000
H        2.74950000      -2.42280000       0.16830000
H        1.55280000      -4.45760000       0.60630000
H        2.37460000      -2.20410000       2.65900000
H        0.71710000      -2.21410000       3.29660000
H        2.93240000      -4.22810000       3.87100000
H        1.29270000      -4.22040000       4.57440000
H        1.85020000      -5.62820000       3.63020000
