19
Properties=species:S:1:pos:R:3 gdb_14737=T pbc="F F F"
C        0.80380000       0.99850000       0.51020000
O        1.12610000       0.31910000      -0.68190000
C        0.01720000      -0.25900000      -1.33960000
C       -0.37280000      -1.62750000      -0.75800000
N       -1.54580000      -2.13110000      -1.44240000
C       -1.43360000      -3.21870000      -2.06490000
O       -2.47950000      -3.73890000      -2.73520000
C       -2.22970000      -4.96950000      -3.40340000
H        0.07060000       1.80080000       0.33260000
H        0.39940000       0.33150000       1.28580000
H        1.72840000       1.44360000       0.88680000
H       -0.85650000       0.40950000      -1.31530000
H        0.30910000      -0.38580000      -2.38780000
H        0.49750000      -2.30230000      -0.82330000
H       -0.61710000      -1.51090000       0.30510000
H       -0.51330000      -3.82300000      -2.11290000
H       -1.45940000      -4.85860000      -4.17630000
H       -1.92580000      -5.75460000      -2.70040000
H       -3.16920000      -5.25850000      -3.87580000
