16
Properties=species:S:1:pos:R:3 gdb_3390=T pbc="F F F"
O        0.33320000       1.07090000      -0.18720000
C        0.09910000       0.08390000       0.80860000
C       -1.29480000      -0.49180000       0.67390000
C       -1.65750000      -1.68950000      -0.11980000
C       -0.59680000      -2.78830000      -0.05880000
C       -0.72460000      -2.69640000       1.48140000
N       -1.82380000      -1.66350000       1.39910000
H        0.22160000       0.64670000      -1.04460000
H        0.87270000      -0.69480000       0.78210000
H        0.19390000       0.60260000       1.76860000
H       -2.04640000       0.29580000       0.65350000
H       -2.52050000      -1.69890000      -0.77910000
H       -0.95310000      -3.74170000      -0.45220000
H        0.37400000      -2.56850000      -0.51470000
H       -1.12750000      -3.60290000       1.93670000
H        0.15380000      -2.38230000       2.05240000
