21
Properties=species:S:1:pos:R:3 gdb_89822=T pbc="F F F"
C        0.00150000       1.57660000       0.03500000
C        0.00890000       0.03930000      -0.02270000
C        0.75820000      -0.54770000      -1.23840000
C        2.17490000      -0.82190000      -0.72990000
C        3.25500000      -1.34970000      -1.62650000
C        3.32070000       0.07780000      -1.13070000
C        2.01720000      -1.26060000       0.71660000
C        0.76670000      -0.51690000       1.19870000
O        0.43090000      -0.36840000       2.34550000
H        1.01580000       1.98160000      -0.04300000
H       -0.59140000       1.98980000      -0.78660000
H       -0.42770000       1.91570000       0.98150000
H       -1.02670000      -0.31250000       0.03150000
H        0.28920000      -1.48950000      -1.55010000
H        0.74940000       0.11990000      -2.10530000
H        3.96100000      -2.06490000      -1.21700000
H        3.01460000      -1.51420000      -2.67230000
H        3.12700000       0.87280000      -1.84350000
H        4.06780000       0.32300000      -0.38260000
H        1.80480000      -2.33790000       0.78600000
H        2.87350000      -1.05840000       1.36460000
