16
Properties=species:S:1:pos:R:3 gdb_5545=T pbc="F F F"
C       -0.51690000       0.92050000       0.08980000
O        0.77020000       0.29390000       0.06680000
C        0.99220000      -0.48450000      -1.02620000
C        0.61760000      -1.78330000      -1.28660000
N       -0.20230000      -2.58410000      -0.45960000
C        1.14500000      -2.11140000      -2.57060000
C        1.82100000      -1.00810000      -3.04290000
N        1.71270000      -0.01360000      -2.10710000
H       -0.63480000       1.61130000      -0.75440000
H       -1.31780000       0.17350000       0.05220000
H       -0.57700000       1.47860000       1.02710000
H       -0.07340000      -2.34170000       0.51670000
H        0.01210000      -3.56820000      -0.56820000
H        1.03150000      -3.05350000      -3.08570000
H        2.37210000      -0.85790000      -3.95650000
H        2.17170000       0.87970000      -2.12820000
