20
Properties=species:S:1:pos:R:3 gdb_82080=T pbc="F F F"
C       -0.49950000       1.59550000      -0.30360000
N       -0.08200000       0.21410000      -0.13110000
C        0.54430000      -0.50960000      -1.22730000
C        1.98310000      -0.13340000      -1.46400000
C        1.62940000      -1.04270000      -0.31000000
C        0.96930000      -0.22040000       0.82430000
C        1.91890000       0.77670000       1.46810000
C        2.58980000       0.30100000       2.74570000
O        2.15640000       1.86400000       0.98680000
H        0.29210000       2.27660000      -0.63940000
H       -1.31790000       1.61160000      -1.03250000
H       -0.89260000       1.97710000       0.64410000
H       -0.06300000      -1.02830000      -1.96220000
H        2.46190000      -0.64000000      -2.29690000
H        2.33120000       0.87710000      -1.27810000
H        2.00320000      -2.05160000      -0.20270000
H        0.53900000      -0.86300000       1.60350000
H        2.96360000      -0.72300000       2.63710000
H        3.40760000       0.97340000       3.00720000
H        1.85810000       0.28790000       3.56230000
