22
Properties=species:S:1:pos:R:3 gdb_13288=T pbc="F F F"
O       -0.08350000       1.46500000      -0.11730000
C        0.02240000       0.05860000       0.05030000
C       -1.37760000      -0.53430000      -0.03260000
C       -1.39500000      -2.05800000       0.13020000
C       -2.79280000      -2.65570000       0.04010000
C       -3.53970000      -2.65120000      -1.32680000
C       -4.08210000      -4.06670000      -0.99180000
C       -2.95830000      -4.20170000       0.07070000
H        0.79970000       1.84120000      -0.06340000
H        0.66200000      -0.38800000      -0.72920000
H        0.47550000      -0.19340000       1.02360000
H       -1.99900000      -0.06560000       0.74060000
H       -1.81620000      -0.25210000      -0.99740000
H       -0.75980000      -2.51850000      -0.64030000
H       -0.94730000      -2.33030000       1.09680000
H       -3.43430000      -2.20330000       0.80690000
H       -4.26420000      -1.85530000      -1.51580000
H       -2.83130000      -2.67980000      -2.16230000
H       -5.07260000      -4.02140000      -0.52980000
H       -4.11140000      -4.80380000      -1.79770000
H       -2.07410000      -4.70080000      -0.34060000
H       -3.20630000      -4.67110000       1.02630000
