18
Properties=species:S:1:pos:R:3 gdb_58135=T pbc="F F F"
C        0.14710000       1.40740000      -0.22350000
C       -0.00100000      -0.08560000       0.10120000
C        0.65030000      -0.43070000       1.44620000
C       -1.50420000      -0.52480000       0.03450000
O       -2.12000000      -0.15370000      -1.18770000
C       -1.56210000      -2.06650000       0.01610000
O       -1.50270000      -2.76900000       0.98350000
C       -2.26060000       0.01330000       1.18070000
N       -2.85660000       0.48670000       2.05000000
H        1.20220000       1.69180000      -0.17940000
H       -0.20860000       1.64780000      -1.22970000
H       -0.39330000       2.02560000       0.50210000
H        0.49290000      -0.65810000      -0.69550000
H        0.21920000       0.16870000       2.25400000
H        0.52480000      -1.48340000       1.70740000
H        1.72140000      -0.21340000       1.40060000
H       -2.19920000       0.80540000      -1.21750000
H       -1.63440000      -2.45520000      -1.02110000
