19
Properties=species:S:1:pos:R:3 gdb_112464=T pbc="F F F"
C       -0.00950000       1.38370000      -0.09470000
O       -0.08350000      -0.01310000       0.08040000
C        0.70510000      -0.51340000       1.15430000
C        0.06240000      -1.83620000       1.59400000
C        0.96560000      -2.63210000       2.51940000
O        0.59740000      -3.05870000       3.58740000
C        2.37770000      -2.87320000       1.99470000
C        2.87940000      -1.76110000       1.11170000
C        2.14510000      -0.71200000       0.74660000
H        1.00070000       1.72550000      -0.36510000
H       -0.69000000       1.64060000      -0.91010000
H       -0.32220000       1.92270000       0.81320000
H        0.65760000       0.20700000       1.98990000
H       -0.90220000      -1.67150000       2.07640000
H       -0.09910000      -2.42570000       0.68160000
H        3.03850000      -3.04390000       2.85200000
H        2.36750000      -3.82190000       1.43570000
H        3.91300000      -1.83680000       0.78270000
H        2.58000000       0.06220000       0.12060000
