17
Properties=species:S:1:pos:R:3 gdb_110167=T pbc="F F F"
C        0.15510000       1.37270000       0.06110000
O       -0.17800000       0.03570000       0.41250000
C        0.77730000      -0.56910000       1.22230000
C        0.43960000      -2.06960000       1.53050000
N        1.79560000      -2.38970000       1.03710000
C        2.04190000      -1.11940000       0.53420000
N        2.89980000      -0.56800000      -0.21340000
C        0.14860000      -2.46040000       2.89840000
C       -0.10510000      -2.78070000       4.02860000
H        1.09620000       1.41380000      -0.49770000
H       -0.66230000       1.74530000      -0.55970000
H        0.24220000       2.00510000       0.95750000
H        0.99330000       0.01990000       2.12440000
H       -0.35730000      -2.39820000       0.85330000
H        2.10680000      -3.27770000       0.66990000
H        3.58450000      -1.23660000      -0.57210000
H       -0.32610000      -3.06240000       5.02850000
