16
Properties=species:S:1:pos:R:3 gdb_45022=T pbc="F F F"
N       -0.22300000       1.29500000      -0.30920000
C       -0.14400000       0.04960000      -0.12410000
O        1.09120000      -0.59350000      -0.17120000
C        1.25360000      -1.92900000      -0.47030000
O        2.35040000      -2.39800000      -0.40120000
C        0.01650000      -2.68420000      -0.91870000
C       -1.24990000      -2.24570000      -0.21840000
C       -1.20850000      -1.88530000       1.23540000
C       -1.31650000      -0.78870000       0.18570000
H        0.69640000       1.68690000      -0.51780000
H       -0.08080000      -2.51980000      -2.00080000
H        0.22810000      -3.74650000      -0.77380000
H       -2.16360000      -2.68810000      -0.60060000
H       -2.09200000      -2.06350000       1.83640000
H       -0.27150000      -1.98630000       1.77270000
H       -2.25270000      -0.25320000       0.10190000
