15
Properties=species:S:1:pos:R:3 gdb_123718=T pbc="F F F"
C       -0.02650000       1.50340000      -0.13260000
C        1.36290000       2.05600000       0.10220000
C        2.44940000       1.32470000       0.35470000
C        2.48990000      -0.18370000       0.45190000
C        1.12390000      -0.72910000       0.22120000
C        0.02270000       0.02250000      -0.03530000
O       -1.02670000      -0.77300000      -0.19020000
N       -0.51760000      -2.12700000      -0.01180000
N        0.71240000      -2.04110000       0.21980000
H       -0.73750000       1.91580000       0.59730000
H       -0.40760000       1.81420000      -1.11570000
H        1.44970000       3.13770000       0.05480000
H        3.39840000       1.83120000       0.50740000
H        3.20670000      -0.58780000      -0.27680000
H        2.87710000      -0.48630000       1.43500000
