20
Properties=species:S:1:pos:R:3 gdb_120103=T pbc="F F F"
O        0.21470000       1.43180000       0.25630000
C        0.04670000       0.02600000       0.25730000
C       -1.35070000      -0.40420000      -0.20870000
C       -1.49160000      -1.92250000      -0.14860000
C       -2.63970000      -2.81610000       0.14470000
C       -4.00940000      -2.50220000      -0.48200000
C       -4.03190000      -1.24110000      -1.29820000
C       -3.29470000      -2.45270000      -1.81030000
N       -1.95900000      -2.85130000      -1.20980000
H        0.16110000       1.73530000      -0.65560000
H        0.81310000      -0.47550000      -0.35550000
H        0.20650000      -0.29130000       1.29390000
H       -2.08860000       0.10190000       0.42140000
H       -1.49850000      -0.04990000      -1.23550000
H       -0.57930000      -2.37330000       0.24950000
H       -2.53030000      -3.65680000       0.82500000
H       -4.90310000      -3.04400000      -0.20370000
H       -4.97420000      -1.09620000      -1.82090000
H       -3.57210000      -0.31700000      -0.98570000
H       -3.53730000      -2.91750000      -2.75710000
