20
Properties=species:S:1:pos:R:3 gdb_109148=T pbc="F F F"
C       -0.21570000       1.59340000      -0.06960000
C        0.07710000       0.09760000      -0.02440000
C       -1.19170000      -0.74100000       0.08390000
C        1.03370000      -0.37730000      -1.16390000
N        2.24850000      -0.84060000      -0.48670000
C        2.04980000      -0.67570000       0.75790000
C        3.06260000      -1.03020000       1.80570000
O        4.22970000      -1.55550000       1.23170000
O        0.88010000      -0.15880000       1.18180000
H        0.71460000       2.16750000      -0.10340000
H       -0.80080000       1.83620000      -0.96260000
H       -0.78470000       1.90690000       0.81040000
H       -1.81710000      -0.59490000      -0.80280000
H       -0.94590000      -1.80430000       0.15790000
H       -1.77340000      -0.45760000       0.96570000
H        0.59650000      -1.19130000      -1.75290000
H        1.27590000       0.43390000      -1.85980000
H        3.28380000      -0.12680000       2.39530000
H        2.60520000      -1.75050000       2.50180000
H        4.07700000      -1.55460000       0.27500000
