19
Properties=species:S:1:pos:R:3 gdb_62810=T pbc="F F F"
C       -0.14170000       1.58940000      -0.06160000
C       -0.01880000       0.06950000      -0.00730000
C       -1.38220000      -0.58320000      -0.21320000
C        1.19940000      -0.65800000      -0.67050000
C        2.16910000      -0.08550000       0.38670000
C        0.88960000      -0.60430000       1.10240000
O        0.97870000      -1.81360000       0.23200000
C        0.62240000      -0.75590000       2.49990000
C        0.37770000      -0.84220000       3.67420000
H        0.80180000       2.12330000       0.05720000
H       -0.57610000       1.89330000      -1.02050000
H       -0.82140000       1.93620000       0.72440000
H       -1.80450000      -0.28390000      -1.17920000
H       -1.30900000      -1.66960000      -0.18160000
H       -2.08190000      -0.25540000       0.56340000
H        1.38040000      -0.88150000      -1.72190000
H        3.04590000      -0.70680000       0.56660000
H        2.39740000       0.97910000       0.40600000
H        0.16550000      -0.92750000       4.71150000
