16
Properties=species:S:1:pos:R:3 gdb_127947=T pbc="F F F"
C       -0.05110000       1.40420000      -0.29960000
N       -0.02460000      -0.04410000      -0.31290000
C       -1.07940000      -0.66650000       0.03840000
N       -2.26790000      -0.06940000       0.43790000
N       -3.43620000      -0.67400000       0.82640000
C       -3.41400000      -1.95340000       0.81550000
N       -2.32100000      -2.70670000       0.44810000
C       -1.09680000      -2.16850000       0.04000000
N       -0.07320000      -2.83850000      -0.30460000
H        0.92010000       1.78650000      -0.62190000
H       -0.81240000       1.81980000      -0.98140000
H       -0.25100000       1.81490000       0.70460000
H       -2.32000000       0.93430000       0.45680000
H       -4.30400000      -2.49420000       1.11130000
H       -2.39730000      -3.71240000       0.47150000
H       -0.24840000      -3.84420000      -0.24890000
