20
Properties=species:S:1:pos:R:3 gdb_91884=T pbc="F F F"
C       -0.01580000       1.56920000       0.01970000
C        0.01410000       0.03890000      -0.01260000
C        0.68880000      -0.47360000      -1.29200000
N        0.85520000      -1.93960000      -1.37130000
C        2.08570000      -2.50130000      -0.86080000
C        0.79760000      -2.72760000      -0.12570000
C        0.59370000      -2.07180000       1.20410000
O        0.27870000      -2.71980000       2.17750000
C        0.71970000      -0.55680000       1.22140000
H        0.99970000       1.98150000       0.04090000
H       -0.52360000       1.97470000      -0.86160000
H       -0.54240000       1.93280000       0.90740000
H       -1.02260000      -0.32580000      -0.01070000
H        0.09440000      -0.16910000      -2.16070000
H        1.67100000       0.00750000      -1.39750000
H        2.51530000      -3.32240000      -1.42910000
H        2.81590000      -1.83180000      -0.40790000
H        0.31520000      -3.69760000      -0.20850000
H        1.78010000      -0.26720000       1.21320000
H        0.28970000      -0.19620000       2.15960000
