13
Properties=species:S:1:pos:R:3 gdb_31920=T pbc="F F F"
O        0.42000000       0.86950000      -0.68480000
C       -0.03310000       0.00270000       0.33200000
C       -1.44890000      -0.41900000       0.09660000
C       -2.28590000      -0.35810000      -0.97600000
N       -3.51000000      -0.89730000      -0.63280000
C       -3.36530000      -1.25610000       0.60620000
O       -2.13280000      -0.99280000       1.12440000
C       -4.31820000      -1.87040000       1.45750000
N       -5.09130000      -2.37090000       2.15770000
H       -0.06830000       1.69690000      -0.61280000
H        0.63020000      -0.87000000       0.30700000
H        0.05520000       0.43830000       1.33880000
H       -2.08680000       0.02820000      -1.96160000
