16
Properties=species:S:1:pos:R:3 gdb_62785=T pbc="F F F"
C       -0.08220000       1.57630000      -0.09510000
C        0.01580000       0.07730000       0.03450000
O       -1.12840000      -0.63320000      -0.36980000
C        1.27910000      -0.70680000      -0.18810000
O        2.43440000       0.01260000       0.27580000
C        1.95250000      -0.07610000       1.64170000
C        1.96240000       1.19860000       2.36760000
N        1.97580000       2.18460000       2.96980000
C        0.63280000      -0.69180000       1.18870000
H        0.86430000       2.06600000       0.13630000
H       -0.34550000       1.83700000      -1.12770000
H       -0.85800000       1.97360000       0.56520000
H       -1.27200000      -0.45040000      -1.30540000
H        1.42360000      -1.49180000      -0.92070000
H        2.56250000      -0.79500000       2.20220000
H        0.07790000      -1.45050000       1.72150000
