16
Properties=species:S:1:pos:R:3 gdb_45096=T pbc="F F F"
O        0.03980000      -0.03810000       0.05410000
C        0.00780000       1.17020000       0.00340000
C       -1.29540000       1.96580000      -0.01450000
C       -1.32880000       3.01480000      -1.12500000
O       -1.05570000       4.37170000      -0.76830000
C       -0.07720000       3.67140000      -1.53250000
C        1.21130000       3.27950000      -0.85030000
N        1.21640000       3.29120000       0.60500000
C        1.26290000       1.98370000      -0.08350000
H       -2.11870000       1.25590000      -0.11100000
H       -1.38780000       2.48590000       0.94520000
H       -2.12590000       2.90290000      -1.85860000
H        0.03640000       4.01790000      -2.55920000
H        2.12070000       3.56820000      -1.37100000
H        2.13950000       3.52800000       0.95710000
H        2.18170000       1.40560000      -0.08650000
