17
Properties=species:S:1:pos:R:3 gdb_74502=T pbc="F F F"
C        0.10450000       1.51410000       0.07890000
C       -0.01510000       0.02620000       0.00550000
C       -0.16190000      -0.72180000      -1.09410000
C       -0.14350000      -2.18010000      -0.76020000
O        1.11380000      -2.59780000      -0.14480000
C        0.02870000      -2.26160000       0.71190000
C        0.06440000      -0.84040000       1.25440000
C       -0.81750000      -3.15350000      -1.56680000
C       -1.39190000      -3.93990000      -2.27160000
H        1.08020000       1.81120000       0.48370000
H       -0.00840000       1.97520000      -0.90560000
H       -0.65360000       1.94010000       0.74830000
H       -0.24830000      -0.35600000      -2.10930000
H       -0.37440000      -3.07970000       1.30260000
H        0.98100000      -0.65190000       1.82710000
H       -0.77920000      -0.65120000       1.93110000
H       -1.89670000      -4.64380000      -2.88590000
