18
Properties=species:S:1:pos:R:3 gdb_24114=T pbc="F F F"
C       -0.03920000       1.48330000      -0.32440000
C       -0.11690000      -0.02840000      -0.17100000
C       -0.17810000      -0.64970000       1.19970000
C       -1.39340000      -0.67250000       0.30510000
C        1.34430000       2.02520000      -0.22700000
C        2.20540000       2.62140000      -1.08870000
N        3.40010000       2.91240000      -0.43720000
C        3.20670000       2.48530000       0.76560000
O        1.99020000       1.93340000       0.98290000
H       -0.44620000       1.78460000      -1.29630000
H       -0.67240000       1.95380000       0.43970000
H        0.44950000      -0.57500000      -0.92000000
H        0.35670000      -1.57730000       1.36980000
H       -0.18840000       0.01820000       2.05430000
H       -2.22360000      -0.02200000       0.56090000
H       -1.69180000      -1.61500000      -0.14020000
H        2.05300000       2.86460000      -2.12850000
H        3.88260000       2.51440000       1.60590000
