18
Properties=species:S:1:pos:R:3 gdb_34846=T pbc="F F F"
N       -0.01030000      -1.14100000      -0.03170000
C       -0.00570000       0.01570000      -0.00930000
C        0.00470000       1.46800000       0.01680000
C       -0.14370000       2.07490000       1.46070000
C        1.40000000       1.93940000       1.59160000
C        1.44760000       2.10530000       0.04310000
C        1.29000000       3.57370000      -0.28980000
C        0.33520000       4.26120000       0.33760000
C       -0.54830000       3.55410000       1.34120000
H       -0.67080000       1.85320000      -0.75120000
H       -0.77440000       1.53170000       2.16570000
H        1.93060000       2.68510000       2.18690000
H        1.68670000       0.93330000       1.90490000
H        2.23350000       1.60540000      -0.52160000
H        1.94940000       4.02860000      -1.02140000
H        0.16850000       5.31780000       0.15140000
H       -1.60420000       3.63890000       1.04870000
H       -0.47140000       4.03760000       2.32500000
