14
Properties=species:S:1:pos:R:3 gdb_42570=T pbc="F F F"
O        0.09570000       0.10240000       0.16640000
C        0.04960000       1.29540000       0.15990000
C       -1.04500000       2.31860000       0.12550000
C       -0.46100000       3.59680000       0.66060000
N       -0.17120000       3.21030000      -0.75230000
C        1.05220000       2.41930000      -0.14480000
C        0.96320000       3.33590000       1.06910000
C        1.94620000       4.25880000       1.62300000
O        1.48600000       3.09840000       2.34940000
H       -2.10550000       2.19510000      -0.05330000
H       -1.09870000       4.43990000       0.90120000
H        1.95940000       2.25600000      -0.71940000
H        2.98050000       4.21650000       1.28660000
H        1.62300000       5.21660000       2.02780000
