22
Properties=species:S:1:pos:R:3 gdb_101898=T pbc="F F F"
C       -0.22420000       1.46230000      -0.13380000
C       -0.23780000      -0.04620000      -0.39180000
C        0.93290000      -0.52320000      -1.25900000
O        2.19370000      -0.17730000      -0.67710000
C        0.85950000      -2.02330000      -1.56470000
C        1.97790000      -2.47860000      -2.51130000
N        1.97470000      -3.91350000      -2.76320000
C        1.12780000      -4.49330000      -3.65090000
O        0.31030000      -3.89550000      -4.32060000
H        0.72130000       1.76850000       0.32140000
H       -0.33630000       2.02090000      -1.06940000
H       -1.04050000       1.75790000       0.53180000
H       -0.20860000      -0.59150000       0.56380000
H       -1.17630000      -0.33910000      -0.87780000
H        0.91760000       0.03160000      -2.20700000
H        2.22400000      -0.57710000       0.19990000
H        0.91940000      -2.58850000      -0.62310000
H       -0.10650000      -2.26270000      -2.02100000
H        1.86450000      -1.97310000      -3.47540000
H        2.95030000      -2.19980000      -2.09950000
H        2.59110000      -4.50800000      -2.23380000
H        1.27090000      -5.59160000      -3.70650000
