17
Properties=species:S:1:pos:R:3 gdb_34141=T pbc="F F F"
C        0.01310000      -1.18120000       0.02370000
C       -0.01640000       0.02210000       0.03540000
C       -0.04410000       1.45230000       0.04130000
C       -0.70010000       2.41090000       1.06990000
C       -0.06020000       3.36040000       0.03480000
C        1.19660000       2.42910000      -0.03740000
C        1.65680000       2.41650000      -1.48710000
O        0.38900000       2.41650000      -2.17200000
C       -0.52950000       2.41550000      -1.10750000
H        0.03350000      -2.24270000       0.01140000
H       -1.79200000       2.39260000       1.12210000
H       -0.25840000       2.40850000       2.06870000
H       -0.06160000       4.44940000       0.02540000
H        1.93360000       2.42590000       0.76510000
H        2.23590000       3.30380000      -1.76930000
H        2.22450000       1.51730000      -1.75360000
H       -1.55690000       2.39320000      -1.46770000
