21
Properties=species:S:1:pos:R:3 gdb_57512=T pbc="F F F"
C        0.02630000       1.59140000       0.23370000
C        0.02640000       0.06410000       0.02970000
C        0.46880000      -0.64200000       1.32580000
C       -1.39870000      -0.39550000      -0.33280000
C        0.94890000      -0.32780000      -1.14560000
C        2.41680000       0.01000000      -1.04910000
O        2.98100000       0.56900000      -0.13530000
C        3.28970000      -0.40480000      -2.24930000
O        2.87030000      -0.96630000      -3.22600000
H        1.01680000       1.95590000       0.51260000
H       -0.28870000       2.11100000      -0.67880000
H       -0.67500000       1.86760000       1.02820000
H       -0.22440000      -0.40760000       2.14070000
H        0.47270000      -1.73100000       1.19990000
H        1.46910000      -0.32720000       1.62920000
H       -1.75260000       0.08670000      -1.25090000
H       -1.44220000      -1.47970000      -0.48500000
H       -2.10010000      -0.14240000       0.46920000
H        0.89340000      -1.40930000      -1.33740000
H        0.59080000       0.11930000      -2.08450000
H        4.35610000      -0.12530000      -2.10990000
