17
Properties=species:S:1:pos:R:3 gdb_45139=T pbc="F F F"
O       -0.00610000      -0.05780000      -0.15250000
C        0.00990000       1.14440000      -0.12400000
O       -1.18490000       1.81340000      -0.03730000
C       -1.35330000       3.08490000      -0.62650000
C       -2.10680000       4.09530000       0.18840000
C       -0.62590000       4.26870000      -0.06670000
C        0.40360000       3.99210000       1.01820000
C        1.49560000       3.09640000       0.48740000
C        1.28990000       1.89870000      -0.07070000
H       -1.53800000       3.02500000      -1.69530000
H       -2.81110000       4.74540000      -0.31790000
H       -2.40950000       3.77980000       1.18090000
H       -0.33270000       5.02400000      -0.79000000
H        0.82240000       4.92910000       1.39550000
H       -0.08550000       3.50440000       1.86920000
H        2.52020000       3.45290000       0.56270000
H        2.12950000       1.30050000      -0.40870000
