15
Properties=species:S:1:pos:R:3 gdb_84300=T pbc="F F F"
O        0.03300000       1.45970000      -0.07720000
C        0.01300000       0.04200000       0.01240000
C        0.57190000      -0.48320000       1.32270000
C       -0.26140000      -1.31140000       1.96450000
C       -1.53200000      -1.44530000       1.21230000
O       -2.48450000      -2.14270000       1.46500000
C       -1.41340000      -0.49070000       0.03400000
C       -2.57980000       0.26280000      -0.44830000
O       -2.06060000      -0.84210000      -1.18330000
H        0.91280000       1.73450000      -0.35370000
H        0.54660000      -0.40550000      -0.83940000
H        1.55710000      -0.18640000       1.66800000
H       -0.08240000      -1.82080000       2.90300000
H       -3.54110000       0.08760000       0.03110000
H       -2.41100000       1.24370000      -0.88480000
