21
Properties=species:S:1:pos:R:3 gdb_80913=T pbc="F F F"
O        0.20810000       1.37830000      -0.20590000
C        0.04860000      -0.00250000      -0.03430000
C       -0.00860000      -0.65870000       1.38330000
C       -1.46120000      -0.10340000       1.51440000
C       -1.38000000      -0.65530000       0.04810000
C       -2.45340000      -0.65510000      -1.00410000
C       -0.64300000      -1.86220000       0.66870000
C       -0.07140000      -3.10130000       0.07350000
C       -1.13570000      -3.17320000       1.17030000
H       -0.34020000       1.84390000       0.43350000
H        0.73340000      -0.47460000      -0.74250000
H        0.76940000      -0.67550000       2.14730000
H       -2.12570000      -0.64170000       2.19400000
H       -1.58770000       0.97690000       1.64540000
H       -2.71440000       0.36940000      -1.29060000
H       -2.11650000      -1.17550000      -1.90760000
H       -3.36530000      -1.14820000      -0.64940000
H       -0.36810000      -3.38630000      -0.93160000
H        0.94190000      -3.39120000       0.33430000
H       -0.82340000      -3.51070000       2.15380000
H       -2.12890000      -3.50600000       0.88350000
