16
Properties=species:S:1:pos:R:3 gdb_72072=T pbc="F F F"
O       -0.39750000       1.16210000       0.09500000
C       -0.00850000      -0.14310000       0.09920000
C        0.89810000      -0.85590000      -0.89510000
N        0.22940000      -2.17160000      -0.52350000
C        0.64340000      -2.31260000       0.93370000
C       -0.17620000      -1.07640000       1.27190000
C       -0.96120000      -1.35210000      -0.02140000
C       -2.33790000      -1.18110000      -0.40370000
O       -2.98770000      -0.23390000       0.02130000
H       -1.36750000       1.17030000       0.18740000
H        0.65530000      -0.59950000      -1.92810000
H        1.98250000      -0.83750000      -0.74310000
H        0.22360000      -3.23370000       1.34430000
H        1.72580000      -2.28640000       1.09540000
H       -0.59220000      -0.73500000       2.21110000
H       -2.76220000      -1.89850000      -1.13290000
