16
Properties=species:S:1:pos:R:3 gdb_5735=T pbc="F F F"
N       -0.03270000       1.44530000      -0.13560000
C       -0.00010000       0.03850000      -0.02370000
C       -1.04880000      -0.85690000      -0.00140000
C       -2.46920000      -1.33990000      -0.24590000
C       -1.82570000      -2.77910000      -0.27860000
N       -0.54040000      -2.13150000       0.03320000
C        0.81920000      -2.12000000      -0.00390000
C        1.17960000      -0.77780000       0.00190000
H        0.78940000       1.87150000       0.27380000
H       -0.84930000       1.84450000       0.31000000
H       -3.19300000      -1.18220000       0.55990000
H       -2.92610000      -1.03740000      -1.19260000
H       -2.16710000      -3.48490000       0.48440000
H       -1.84790000      -3.25990000      -1.26090000
H        1.42450000      -3.01140000       0.02820000
H        2.19370000      -0.40590000       0.04810000
