17
Properties=species:S:1:pos:R:3 gdb_42945=T pbc="F F F"
O       -0.03910000      -0.00980000      -0.08560000
C       -0.01240000       1.19460000       0.00520000
C       -1.28250000       2.02560000      -0.03290000
O       -1.55550000       2.85810000       1.11010000
C       -1.07870000       3.48720000      -0.07630000
C        0.37410000       3.95730000      -0.07330000
C        1.16260000       3.20510000       1.03250000
C        1.26680000       2.01500000       0.03070000
C        1.16160000       3.09560000      -1.10520000
H       -2.15350000       1.53750000      -0.46380000
H       -1.81140000       4.10720000      -0.58940000
H        0.45110000       5.04470000      -0.12670000
H        2.14530000       3.65710000       1.18490000
H        0.67040000       3.03950000       1.98940000
H        2.13250000       1.35330000       0.05880000
H        0.66330000       2.82120000      -2.03910000
H        2.14580000       3.51500000      -1.32720000
