19
Properties=species:S:1:pos:R:3 gdb_13533=T pbc="F F F"
C        0.27070000      -2.06310000      -1.94610000
C        0.14230000      -1.64620000      -0.46560000
C        0.94260000      -0.45240000      -0.18630000
C        1.59010000       0.53870000       0.02340000
C       -1.32710000      -1.41260000      -0.11210000
C       -2.18020000      -2.54130000       0.36090000
N       -1.85120000      -1.43220000       1.24800000
C       -0.96690000      -1.69030000       2.37500000
H        1.31740000      -2.22950000      -2.21260000
H       -0.29050000      -2.98400000      -2.12840000
H       -0.12510000      -1.28160000      -2.60140000
H        0.52820000      -2.46860000       0.14840000
H        2.16470000       1.41000000       0.21880000
H       -1.78490000      -0.64190000      -0.73190000
H       -3.22070000      -2.62840000       0.05840000
H       -1.67890000      -3.49490000       0.53340000
H       -0.24190000      -2.50410000       2.21450000
H       -0.41080000      -0.77920000       2.61330000
H       -1.57910000      -1.95780000       3.24200000
