14
Properties=species:S:1:pos:R:3 gdb_49354=T pbc="F F F"
O        0.03710000      -0.04300000       0.37200000
C        0.01440000       1.09490000      -0.02110000
C        1.23730000       1.95050000      -0.06360000
C        1.44700000       2.93570000      -1.21340000
C        0.49140000       3.06420000      -2.27400000
C       -0.29120000       3.18510000      -3.17740000
C        1.14050000       3.45500000       0.18470000
C       -0.12490000       4.07590000       0.46710000
N       -1.13060000       4.59350000       0.70660000
H       -0.91690000       1.57600000      -0.38000000
H        2.12460000       1.46280000       0.32360000
H        2.48370000       3.05520000      -1.51410000
H       -0.99070000       3.29340000      -3.96980000
H        1.97310000       3.89190000       0.72540000
