19
Properties=species:S:1:pos:R:3 gdb_103140=T pbc="F F F"
C       -0.26010000       1.51570000      -0.05460000
C        0.08420000       0.04620000      -0.02290000
O        1.33490000      -0.25430000      -0.75710000
C        1.94050000      -0.73430000       0.37280000
N        3.08410000      -1.22180000       0.57030000
C        0.72250000      -0.54560000       1.27100000
N        0.79240000       0.31310000       2.43200000
C        0.18910000      -1.92010000       1.69900000
O        1.08040000      -2.52880000       2.61140000
H        0.56660000       2.12850000       0.31460000
H       -0.49300000       1.83030000      -1.07590000
H       -1.13180000       1.70360000       0.57860000
H       -0.72190000      -0.56300000      -0.44450000
H        3.64950000      -1.24320000      -0.28010000
H        1.09570000      -0.25440000       3.21940000
H        1.48860000       1.04150000       2.31340000
H       -0.76540000      -1.79640000       2.22180000
H        0.01930000      -2.54530000       0.80960000
H        1.94880000      -2.55710000       2.18160000
