13
Properties=species:S:1:pos:R:3 gdb_131288=T pbc="F F F"
O       -0.07460000       1.29030000       0.01010000
C        0.03160000      -0.03580000       0.00260000
N        1.12210000      -0.71730000      -0.00680000
N        0.67480000      -2.04620000      -0.01130000
C        1.55250000      -3.12260000      -0.02140000
O        2.75060000      -3.02110000      -0.02710000
C       -0.72890000      -2.14420000      -0.00420000
N       -1.39430000      -3.22500000      -0.00600000
N       -1.10910000      -0.79640000       0.00460000
H        0.82260000       1.65230000       0.00730000
H        0.98710000      -4.06730000      -0.02310000
H       -2.39710000      -3.06380000       0.00020000
H       -2.05370000      -0.45360000       0.01250000
