19
Properties=species:S:1:pos:R:3 gdb_91083=T pbc="F F F"
O       -0.24810000       1.40580000      -0.13700000
C        0.00590000       0.03040000      -0.01790000
C        0.27070000      -0.60240000       1.40870000
C       -0.67100000      -1.79860000       1.01290000
C       -1.92060000      -2.28090000       1.73100000
C       -2.86620000      -1.29540000       2.36500000
C       -3.11630000      -1.72980000       0.93270000
C       -2.53630000      -0.78000000      -0.07260000
C       -1.20470000      -0.86070000      -0.04780000
H        0.59400000       1.86480000      -0.21370000
H        0.78740000      -0.29730000      -0.72030000
H        1.30650000      -0.84500000       1.65990000
H       -0.16910000       0.03360000       2.17960000
H       -0.07950000      -2.63740000       0.62920000
H       -1.94740000      -3.29890000       2.10100000
H       -3.52800000      -1.69100000       3.12880000
H       -2.54410000      -0.27310000       2.53610000
H       -3.99420000      -2.32930000       0.71530000
H       -3.12600000      -0.02260000      -0.57550000
