19
Properties=species:S:1:pos:R:3 gdb_100394=T pbc="F F F"
C       -0.24790000       1.18880000       0.27020000
O       -0.08070000      -0.19400000       0.00390000
C        0.63050000      -0.53070000      -1.18640000
C        2.02720000       0.08500000      -1.26790000
C        0.71510000      -2.07630000      -1.16480000
C       -0.61950000      -2.78450000      -1.01310000
O       -0.99250000      -3.67050000      -1.73960000
C       -0.23390000      -0.11920000      -2.38980000
O        0.17810000       0.40410000      -3.38970000
H        0.69480000       1.67060000       0.55770000
H       -0.66980000       1.73220000      -0.58700000
H       -0.94730000       1.25880000       1.10610000
H        2.60540000      -0.17900000      -0.37820000
H        2.54570000      -0.28760000      -2.15390000
H        1.98320000       1.17260000      -1.35640000
H        1.21360000      -2.45080000      -2.06220000
H        1.32140000      -2.34120000      -0.28770000
H       -1.23150000      -2.44180000      -0.15430000
H       -1.31410000      -0.35510000      -2.25010000
