23
Properties=species:S:1:pos:R:3 gdb_66249=T pbc="F F F"
O        0.04700000       1.30200000      -0.22610000
C       -0.02060000      -0.12620000      -0.12130000
C        0.83620000      -0.78000000      -1.22980000
C        2.26350000      -0.74120000      -0.66690000
C        2.07160000      -1.13080000       0.81500000
C        0.65760000      -0.61220000       1.19830000
C       -1.48830000      -0.49480000      -0.20680000
C       -2.55510000       0.37520000       0.40680000
C       -2.43900000       0.26590000      -1.09460000
H        0.96830000       1.56660000      -0.15120000
H        0.52340000      -1.82310000      -1.36520000
H        0.70960000      -0.26440000      -2.18490000
H        2.95700000      -1.40100000      -1.19520000
H        2.67830000       0.27290000      -0.75090000
H        2.10950000      -2.22100000       0.91170000
H        2.85930000      -0.73260000       1.46060000
H        0.68920000       0.22300000       1.90350000
H        0.06340000      -1.39910000       1.67130000
H       -1.64910000      -1.56760000      -0.14070000
H       -3.39040000      -0.10960000       0.90020000
H       -2.23480000       1.30680000       0.85690000
H       -2.04350000       1.12670000      -1.61980000
H       -3.19440000      -0.29390000      -1.63510000
