21
Properties=species:S:1:pos:R:3 gdb_57004=T pbc="F F F"
C       -0.03600000       1.55460000      -0.01070000
C        0.02900000       0.01350000      -0.02250000
C        0.71110000      -0.45610000      -1.22930000
C        1.29030000      -0.82380000      -2.21700000
C        0.69770000      -0.55320000       1.24970000
C       -0.03030000      -0.17900000       2.57200000
C        0.18220000      -1.39510000       3.44160000
C        0.63730000      -2.43400000       2.74420000
C        0.81300000      -2.10260000       1.28260000
H        0.97090000       1.98080000       0.03850000
H       -0.51630000       1.92930000      -0.91810000
H       -0.60470000       1.91130000       0.85250000
H       -1.00210000      -0.36980000      -0.04840000
H        1.79140000      -1.15670000      -3.09190000
H        1.71370000      -0.14360000       1.29840000
H        0.35970000       0.74220000       3.01890000
H       -1.10550000      -0.00710000       2.40630000
H       -0.05410000      -1.40300000       4.50010000
H        0.82990000      -3.42260000       3.14650000
H        0.02600000      -2.57890000       0.67870000
H        1.76290000      -2.45350000       0.86690000
