19
Properties=species:S:1:pos:R:3 gdb_96193=T pbc="F F F"
O       -0.01290000       1.40120000      -0.04990000
C        0.03200000      -0.01480000       0.05750000
C        0.67500000      -0.48920000       1.36760000
O        0.77370000      -1.90060000       1.35610000
C       -0.47050000      -2.58860000       1.35280000
C       -1.65790000      -1.80540000       0.80310000
O       -2.32570000      -1.02450000       1.82390000
C       -2.37460000       0.13230000       0.95830000
C       -1.40500000      -0.52570000      -0.04270000
H        0.89160000       1.73030000      -0.06420000
H        0.62230000      -0.45140000      -0.76280000
H        1.70200000      -0.11460000       1.44420000
H        0.10920000      -0.12060000       2.23520000
H       -0.31200000      -3.49560000       0.75850000
H       -0.73960000      -2.89640000       2.37560000
H       -2.36660000      -2.50390000       0.33660000
H       -3.38370000       0.29840000       0.56030000
H       -2.02500000       1.04140000       1.45440000
H       -1.74070000      -0.55350000      -1.08010000
