19
Properties=species:S:1:pos:R:3 gdb_90301=T pbc="F F F"
C       -0.11740000       1.55750000      -0.12040000
C        0.00360000       0.04130000      -0.04420000
C        1.24870000      -0.56010000      -0.81560000
C        1.90180000      -0.64770000       0.54190000
C        2.95770000      -0.20060000       1.22800000
C        2.48240000       0.22690000       2.58380000
O        1.63280000       1.40030000       2.49600000
C        0.99660000       0.12780000       2.59660000
C        0.60190000      -0.56090000       1.29960000
H        0.81190000       2.04680000       0.17860000
H       -0.36910000       1.86830000      -1.14030000
H       -0.90760000       1.91930000       0.54530000
H       -0.94230000      -0.42990000      -0.32480000
H        1.01340000      -1.53250000      -1.25980000
H        1.72950000       0.07130000      -1.56710000
H        3.94520000       0.02590000       0.84500000
H        3.09380000       0.18540000       3.48040000
H        0.43440000      -0.03130000       3.51280000
H        0.13310000      -1.52710000       1.51730000
