17
Properties=species:S:1:pos:R:3 gdb_68144=T pbc="F F F"
O       -0.08030000       1.39220000      -0.01690000
C       -0.01140000       0.00960000       0.02440000
C        0.32630000      -0.81180000       1.31800000
C       -0.39290000      -1.91970000       0.48800000
C       -1.33420000      -0.79660000      -0.03790000
N        0.47780000      -2.14240000      -0.69900000
C        0.83280000      -0.73130000      -1.03480000
C       -0.89230000      -3.13220000       1.09800000
N       -1.28130000      -4.09220000       1.61070000
H        0.81410000       1.75010000      -0.03890000
H        1.37330000      -0.98980000       1.57920000
H       -0.24670000      -0.47390000       2.18220000
H       -2.05770000      -0.46970000       0.70840000
H       -1.79910000      -0.96600000      -1.00990000
H        1.30340000      -2.66430000      -0.42020000
H        0.52860000      -0.47600000      -2.05490000
H        1.90510000      -0.52790000      -0.92730000
