15
Properties=species:S:1:pos:R:3 gdb_132197=T pbc="F F F"
N        0.11030000       1.38840000       0.12920000
C       -0.01540000       0.00180000       0.01600000
C       -1.16890000      -0.70120000       0.01020000
C       -1.19690000      -2.16010000       0.00020000
N       -2.33020000      -2.77900000      -0.00090000
C        0.12840000      -2.78840000      -0.03110000
C        1.22970000      -2.02610000      -0.03180000
F        2.46590000      -2.51290000      -0.03180000
N        1.21120000      -0.65320000      -0.04860000
H        0.70980000       1.79720000      -0.57930000
H       -0.78750000       1.85330000       0.13220000
H       -2.12050000      -0.18440000      -0.00180000
H       -2.17780000      -3.78920000      -0.02190000
H        0.22850000      -3.86580000      -0.06410000
H        2.02950000      -0.17330000       0.29660000
