20
Properties=species:S:1:pos:R:3 gdb_114397=T pbc="F F F"
C        0.16830000       1.28210000      -0.39210000
C       -0.00580000      -0.20900000      -0.08670000
C       -1.46600000      -0.61220000       0.08050000
C       -2.41660000      -0.58720000      -1.16470000
C       -2.82410000      -2.07090000      -0.88490000
C       -1.79800000      -2.10930000       0.27950000
O       -0.94780000      -3.00310000      -0.51020000
C       -1.88260000      -3.05410000      -1.53460000
N       -1.87900000      -3.70830000      -2.60370000
H        1.22490000       1.53860000      -0.51450000
H       -0.34930000       1.56430000      -1.31540000
H       -0.23450000       1.90370000       0.41540000
H        0.44210000      -0.81060000      -0.88500000
H        0.54140000      -0.46380000       0.83030000
H       -1.91580000      -0.04150000       0.90200000
H       -3.24660000       0.11550000      -1.07820000
H       -1.93100000      -0.43410000      -2.13130000
H       -3.87830000      -2.32770000      -0.81810000
H       -1.96500000      -2.51510000       1.27730000
H       -1.03150000      -4.27170000      -2.69220000
