15
Properties=species:S:1:pos:R:3 gdb_2230=T pbc="F F F"
C        0.03510000       1.51240000      -0.02420000
C       -0.06470000       0.01850000       0.11700000
C       -1.36950000      -0.71380000      -0.21490000
C       -1.30430000      -1.96110000       0.64260000
C       -0.20870000      -1.99120000       1.40580000
C        0.64180000      -0.79680000       1.12580000
O        1.09920000      -0.73380000      -0.24900000
H        1.01630000       1.86320000       0.30500000
H       -0.09850000       1.81320000      -1.06960000
H       -0.73600000       2.01430000       0.56980000
H       -2.24660000      -0.09880000       0.02640000
H       -1.43160000      -0.94940000      -1.28440000
H       -2.06100000      -2.73640000       0.59700000
H        0.06490000      -2.77300000       2.10320000
H        1.33330000      -0.38630000       1.85620000
