16
Properties=species:S:1:pos:R:3 gdb_7738=T pbc="F F F"
N        0.04940000       1.38280000       0.13220000
C       -0.01970000       0.00710000       0.05490000
C       -1.16210000      -0.70340000       0.15040000
C       -1.19030000      -2.15370000       0.04770000
N       -2.28360000      -2.80210000      -0.03660000
O        0.01910000      -2.81160000      -0.01420000
C        1.15460000      -2.12090000       0.49930000
C        1.28980000      -0.72250000      -0.09470000
H        0.85420000       1.81820000      -0.29150000
H       -0.80920000       1.88740000      -0.03240000
H       -2.13030000      -0.22570000       0.24380000
H       -2.08200000      -3.80150000      -0.10020000
H        1.07910000      -2.04950000       1.59310000
H        2.01760000      -2.74460000       0.25380000
H        1.56810000      -0.78080000      -1.15550000
H        2.09040000      -0.18170000       0.42370000
