17
Properties=species:S:1:pos:R:3 gdb_62449=T pbc="F F F"
C       -0.00010000       1.58710000      -0.05840000
C        0.03550000       0.07070000      -0.03160000
C       -1.08150000      -0.60470000      -0.63350000
C       -2.00880000      -1.18700000      -1.13300000
C        1.37120000      -0.68730000      -0.15170000
O        2.53740000       0.07610000       0.02850000
C        2.73700000       0.13610000       1.43180000
O        1.45210000       0.08620000       2.03130000
C        0.66120000      -0.68080000       1.15860000
H       -0.04130000       1.94620000      -1.09050000
H       -0.88570000       1.95390000       0.46780000
H        0.88500000       2.00670000       0.41900000
H       -2.83230000      -1.68930000      -1.57670000
H        1.46320000      -1.54130000      -0.81290000
H        3.35080000      -0.71590000       1.76870000
H        3.21680000       1.08440000       1.68710000
H        0.15400000      -1.52930000       1.60340000
