19
Properties=species:S:1:pos:R:3 gdb_93902=T pbc="F F F"
C        0.00070000       1.50510000      -0.03420000
C        0.03280000      -0.01750000       0.00320000
O        0.61100000      -0.45810000      -1.21420000
C        0.78410000      -1.86400000      -1.26940000
C        1.89080000      -2.32930000      -0.31760000
O        3.17890000      -2.01810000      -0.81130000
C        1.69000000      -1.70380000       1.06360000
O        2.21660000      -0.37110000       1.17230000
C        0.79740000      -0.54290000       1.20590000
H        1.02050000       1.89770000      -0.05910000
H       -0.52850000       1.84540000      -0.92750000
H       -0.50850000       1.90340000       0.84840000
H       -0.99780000      -0.41130000       0.08300000
H       -0.16210000      -2.37990000      -1.03070000
H        1.06580000      -2.10370000      -2.29790000
H        1.84620000      -3.42100000      -0.23230000
H        3.29270000      -1.07100000      -0.65650000
H        1.89990000      -2.32940000       1.92950000
H        0.33840000      -0.33810000       2.17400000
