16
Properties=species:S:1:pos:R:3 gdb_33364=T pbc="F F F"
N       -0.15320000      -3.80960000      -0.48890000
C       -0.10820000      -2.65860000      -0.33650000
C       -0.05490000      -1.30680000      -0.15670000
C       -0.00830000      -0.10920000       0.00320000
C        0.06670000       1.32280000       0.19720000
C       -0.49120000       1.82800000       1.56720000
C        0.56590000       2.86850000       2.01810000
O        1.39840000       3.11320000       0.89080000
C        1.51600000       1.88690000       0.20910000
H       -0.47940000       1.81540000      -0.61460000
H       -1.48030000       2.27000000       1.43680000
H       -0.58150000       1.00990000       2.28390000
H        0.13450000       3.82350000       2.32560000
H        1.16240000       2.47140000       2.85280000
H        2.18660000       1.18860000       0.73460000
H        1.91180000       2.07830000      -0.78990000
