16
Properties=species:S:1:pos:R:3 gdb_19744=T pbc="F F F"
C        0.00270000       1.49590000      -0.02050000
O        1.42230000       1.78270000      -0.03730000
C        1.97480000       0.49050000       0.00870000
C        1.15190000      -0.42220000      -0.98620000
C        1.55610000      -1.82120000      -0.57270000
C        1.56180000      -1.77110000       0.76490000
C        1.16070000      -0.34500000       1.07600000
C        0.01840000      -0.02360000       0.03630000
H       -0.45850000       1.96530000       0.85630000
H       -0.46610000       1.89860000      -0.92610000
H        3.06470000       0.52630000       0.00270000
H        1.07430000      -0.16280000      -2.04240000
H        1.81510000      -2.63270000      -1.23740000
H        1.82670000      -2.53080000       1.48620000
H        1.09190000      -0.00730000       2.11050000
H       -0.93340000      -0.55620000       0.06030000
