17
Properties=species:S:1:pos:R:3 gdb_114588=T pbc="F F F"
O       -0.01680000       1.37990000      -0.23370000
C        0.02790000       0.00210000       0.11050000
C       -1.39000000      -0.52320000      -0.00190000
C       -2.04770000      -0.60990000      -1.42560000
C       -2.23640000      -2.11540000      -1.21940000
N       -0.89620000      -2.68610000      -1.01700000
C       -1.59220000      -2.04530000       0.13810000
C       -1.88650000      -2.78010000       1.32180000
N       -2.12360000      -3.36430000       2.29340000
H        0.88450000       1.71390000      -0.25770000
H        0.68110000      -0.56600000      -0.56490000
H        0.39450000      -0.14460000       1.13960000
H       -2.04270000       0.01610000       0.68810000
H       -2.98600000      -0.05740000      -1.48450000
H       -1.40640000      -0.34010000      -2.26630000
H       -3.06500000      -2.73850000      -1.53180000
H       -0.99630000      -3.69550000      -0.90720000
