16
Properties=species:S:1:pos:R:3 gdb_4123=T pbc="F F F"
C        0.02160000       1.53450000       0.00900000
C       -0.04140000       0.04010000      -0.07380000
C       -0.85850000      -0.82140000       0.82630000
N        0.59980000      -0.92820000       0.94430000
C        1.01330000      -1.82090000      -0.20380000
C        0.47800000      -0.79870000      -1.18490000
N        0.62620000      -0.52200000      -2.41180000
O        1.29870000      -1.56470000      -3.07910000
H        0.98850000       1.90440000      -0.34440000
H       -0.75940000       1.98410000      -0.61330000
H       -0.12610000       1.86840000       1.03960000
H       -1.32260000      -0.32610000       1.67450000
H       -1.42330000      -1.66150000       0.42630000
H        2.10030000      -1.92170000      -0.25590000
H        0.55590000      -2.81490000      -0.18530000
H        1.36570000      -1.22090000      -3.97630000
