19
Properties=species:S:1:pos:R:3 gdb_96433=T pbc="F F F"
C       -0.03400000       1.51690000      -0.09020000
C        0.06880000       0.00040000      -0.00980000
O        0.69590000      -0.45670000      -1.19810000
C        0.71440000      -1.87740000      -1.26070000
C        1.46860000      -2.44750000      -0.06870000
O        0.90920000      -1.96250000       1.15430000
C        0.82990000      -0.55550000       1.22040000
C        2.18340000       0.11080000       1.44810000
O        3.24520000      -0.45330000       1.42000000
H        0.94600000       1.97150000      -0.25640000
H       -0.67670000       1.79410000      -0.92950000
H       -0.46510000       1.93160000       0.82610000
H       -0.94410000      -0.43360000       0.04950000
H       -0.31810000      -2.26280000      -1.27670000
H        1.20500000      -2.14740000      -2.20050000
H        1.37240000      -3.53660000      -0.03160000
H        2.52970000      -2.18430000      -0.12630000
H        0.23240000      -0.32620000       2.11560000
H        2.11590000       1.19720000       1.68460000
