23
Properties=species:S:1:pos:R:3 gdb_87706=T pbc="F F F"
C       -0.15910000       1.51490000       0.61950000
C       -0.12320000       0.01500000       0.43320000
C        0.98470000      -0.63710000      -0.36160000
C        0.90920000      -0.84360000       1.12200000
C        1.88100000      -0.41640000       2.23120000
C        1.28610000      -1.53680000       3.14290000
C        0.32620000      -1.03240000       4.21580000
C        0.58590000      -2.14170000       1.87690000
O       -0.74730000      -2.58440000       1.95700000
H        0.85090000       1.92830000       0.70430000
H       -0.64550000       2.00450000      -0.23130000
H       -0.70930000       1.79900000       1.52450000
H       -1.09980000      -0.45340000       0.32370000
H        0.73630000      -1.47450000      -1.00690000
H        1.77390000       0.00450000      -0.74430000
H        2.93080000      -0.58210000       1.97180000
H        1.77690000       0.60450000       2.61110000
H        2.02710000      -2.20000000       3.59840000
H       -0.39040000      -0.30540000       3.81290000
H       -0.24290000      -1.85680000       4.65740000
H        0.87310000      -0.52850000       5.01920000
H        1.14660000      -2.99450000       1.48050000
H       -1.28370000      -1.84850000       2.27060000
