17
Properties=species:S:1:pos:R:3 gdb_87331=T pbc="F F F"
C       -0.00720000       1.51780000       0.08180000
C        0.10960000       0.01110000       0.03990000
C        1.44860000      -0.67310000      -0.02490000
C        0.62380000      -0.74410000       1.25150000
O        1.01020000       0.04870000       2.34270000
C        2.06200000      -0.40640000       3.08120000
N        2.48980000       0.30000000       4.02920000
C       -0.00450000      -1.99600000       1.60880000
N       -0.49780000      -3.00370000       1.89040000
H        0.79490000       1.96350000       0.67290000
H        0.04190000       1.92350000      -0.93350000
H       -0.96000000       1.82270000       0.52440000
H       -0.69680000      -0.49850000      -0.47870000
H        1.56050000      -1.57750000      -0.61120000
H        2.33330000      -0.04820000       0.03930000
H        2.43240000      -1.38530000       2.75580000
H        3.26430000      -0.16820000       4.49510000
