15
Properties=species:S:1:pos:R:3 gdb_125275=T pbc="F F F"
C       -0.01800000       1.48490000       0.07300000
C       -0.00280000      -0.00070000      -0.05600000
C       -0.04490000      -0.80260000      -1.17080000
C       -0.00270000      -2.16220000      -0.71060000
C        0.06310000      -2.09830000       0.66260000
N        0.06500000      -0.81370000       1.09260000
O        0.10950000      -3.28190000       1.26170000
N        0.07230000      -4.25020000       0.20160000
C        0.00740000      -3.56670000      -0.92140000
H        0.88720000       1.86710000       0.56140000
H       -0.07640000       1.93940000      -0.91840000
H       -0.87860000       1.84090000       0.65340000
H       -0.09940000      -0.44230000      -2.18620000
H        0.10620000      -0.48870000       2.04270000
H       -0.02900000      -4.13280000      -1.84240000
