21
Properties=species:S:1:pos:R:3 gdb_115360=T pbc="F F F"
C        0.08700000       1.54340000      -0.00800000
C        0.04520000       0.01770000       0.04190000
O        0.61990000      -0.45080000      -1.17050000
C        0.90310000      -1.84120000      -1.15690000
C        2.00140000      -2.17110000      -0.13880000
C        3.38430000      -1.72400000      -0.65570000
O        4.42570000      -1.91780000       0.28690000
C        1.64870000      -1.51690000       1.17540000
C        0.74900000      -0.53800000       1.25410000
H        1.12260000       1.89470000      -0.02440000
H       -0.41670000       1.90070000      -0.90990000
H       -0.41470000       1.97060000       0.86540000
H       -1.01520000      -0.29940000       0.08240000
H       -0.00710000      -2.41690000      -0.92550000
H        1.21280000      -2.09550000      -2.17610000
H        2.03800000      -3.25890000       0.00800000
H        3.65760000      -2.32440000      -1.53050000
H        3.31680000      -0.67480000      -0.97690000
H        4.29470000      -1.28100000       0.99650000
H        2.13920000      -1.88550000       2.07250000
H        0.47220000      -0.10330000       2.21170000
