24
Properties=species:S:1:pos:R:3 gdb_15080=T pbc="F F F"
C       -0.56410000       1.26700000      -0.67110000
C       -0.24910000      -0.22490000      -0.52200000
C        1.01040000      -0.69970000      -1.27470000
C        2.30900000       0.02030000      -0.84490000
C        2.70190000      -0.13270000       0.62980000
C        1.14270000      -2.21190000      -1.18410000
C        0.38480000      -3.10480000      -2.13400000
C        1.88610000      -2.98380000      -2.24440000
H        0.20910000       1.89780000      -0.22130000
H       -0.64850000       1.55050000      -1.72670000
H       -1.51280000       1.51660000      -0.18540000
H       -0.15690000      -0.47520000       0.54280000
H       -1.10050000      -0.81010000      -0.89040000
H        0.86090000      -0.45650000      -2.33810000
H        3.12590000      -0.35790000      -1.47140000
H        2.21970000       1.08740000      -1.08030000
H        1.94210000       0.27920000       1.30180000
H        2.85460000      -1.18130000       0.90450000
H        3.63800000       0.39680000       0.83360000
H        1.24040000      -2.59590000      -0.17130000
H       -0.03200000      -4.03270000      -1.75780000
H       -0.21660000      -2.63040000      -2.90350000
H        2.28470000      -2.42840000      -3.08780000
H        2.49640000      -3.82870000      -1.94470000
