18
Properties=species:S:1:pos:R:3 gdb_77119=T pbc="F F F"
C       -0.36450000       1.41370000      -0.02050000
C        0.02470000      -0.05620000       0.01730000
N        1.22880000      -0.43020000      -0.75710000
C        1.94160000      -1.04910000       0.36710000
C        0.77840000      -0.58640000       1.25600000
C        0.76540000      -0.11980000       2.63930000
O        0.18200000      -1.37800000       2.25330000
C        1.41920000      -0.64280000      -2.08090000
O        2.37960000      -1.21460000      -2.55310000
H        0.48490000       2.04990000       0.24410000
H       -0.71150000       1.70110000      -1.01780000
H       -1.18140000       1.60550000       0.68300000
H       -0.83790000      -0.69280000      -0.22060000
H        2.03450000      -2.13690000       0.27910000
H        2.92550000      -0.61680000       0.57260000
H        1.67010000      -0.19120000       3.24110000
H        0.05580000       0.64450000       2.95160000
H        0.59960000      -0.21470000      -2.69390000
