16
Properties=species:S:1:pos:R:3 gdb_50124=T pbc="F F F"
O       -0.56540000       0.85570000       0.97090000
C        0.13560000       0.81360000      -0.00750000
C        1.44130000       1.57000000      -0.14040000
N        2.48770000       0.88070000      -0.95940000
C        2.67930000       2.11930000      -1.76710000
C        1.41330000       2.33920000      -2.54570000
C        1.45460000       2.77340000      -1.10130000
C        3.96010000       2.63240000      -2.09610000
C        5.06230000       3.04250000      -2.35380000
H       -0.14260000       0.21830000      -0.90480000
H        1.78220000       1.86370000       0.85680000
H        3.30810000       0.67470000      -0.39950000
H        1.44050000       3.16270000      -3.25070000
H        0.85080000       1.46930000      -2.86840000
H        1.29370000       3.79970000      -0.80090000
H        6.03080000       3.40770000      -2.59130000
