18
Properties=species:S:1:pos:R:3 gdb_8290=T pbc="F F F"
O       -0.20690000       1.47560000      -0.03900000
C       -0.01480000       0.08240000      -0.00010000
C        0.33050000      -0.59710000       1.35570000
C       -0.69470000      -1.70950000       0.99770000
C       -1.56420000      -2.28390000       2.11990000
C       -2.61470000      -3.23440000       1.59170000
O       -2.72530000      -4.38970000       1.91420000
C       -1.32420000      -0.72890000      -0.03630000
H        0.65540000       1.90320000      -0.04900000
H        0.67550000      -0.24810000      -0.78950000
H        1.36490000      -0.89030000       1.55120000
H       -0.03390000       0.02430000       2.18010000
H       -0.18890000      -2.53000000       0.47710000
H       -0.95770000      -2.81470000       2.86050000
H       -2.08150000      -1.45630000       2.62690000
H       -3.30710000      -2.78460000       0.84190000
H       -2.12670000      -0.13670000       0.41560000
H       -1.66480000      -1.12020000      -0.99710000
