16
Properties=species:S:1:pos:R:3 gdb_27056=T pbc="F F F"
C        0.08200000       1.49600000       0.04290000
C       -0.03020000       0.01440000       0.05150000
C       -1.07980000      -0.86110000      -0.00210000
N       -2.43320000      -0.50780000      -0.08660000
C       -3.49980000      -1.36080000      -0.14150000
O       -3.44910000      -2.57070000      -0.12610000
C       -0.52810000      -2.18760000       0.04450000
C        0.81370000      -2.01390000       0.12290000
O        1.13540000      -0.69400000       0.12850000
H        0.67020000       1.85230000      -0.81080000
H       -0.90610000       1.96080000      -0.02140000
H        0.56410000       1.87070000       0.95340000
H       -2.64820000       0.47680000      -0.10950000
H       -4.45040000      -0.79570000      -0.20410000
H       -1.08460000      -3.10690000       0.02080000
H        1.64370000      -2.69830000       0.17960000
