20
Properties=species:S:1:pos:R:3 gdb_10428=T pbc="F F F"
C        0.05720000       1.78490000      -0.21340000
C        0.10480000       0.29070000       0.13300000
C       -1.22400000      -0.47130000      -0.01160000
C       -1.82660000      -0.56240000      -1.46110000
C       -2.08430000      -2.07410000      -1.22330000
C       -1.15830000      -2.02360000       0.02170000
C       -2.27920000       0.07390000       0.92700000
O       -2.87900000      -0.56570000       1.75490000
H        1.06500000       2.21060000      -0.19700000
H       -0.35380000       1.94810000      -1.21540000
H       -0.54890000       2.35910000       0.49310000
H        0.83010000      -0.20220000      -0.52610000
H        0.48470000       0.15740000       1.15450000
H       -2.69140000       0.06900000      -1.68690000
H       -1.05830000      -0.37410000      -2.21710000
H       -3.12310000      -2.27820000      -0.95340000
H       -1.79680000      -2.75050000      -2.03070000
H       -0.14940000      -2.38970000      -0.18580000
H       -1.53270000      -2.48630000       0.93570000
H       -2.50350000       1.15560000       0.78430000
