23
Properties=species:S:1:pos:R:3 gdb_113440=T pbc="F F F"
C       -0.05030000       1.32590000      -0.05840000
C        0.43690000      -0.11760000      -0.23490000
C        1.10570000      -0.64850000       1.00860000
O        0.24120000      -0.97300000       2.11490000
C        0.95600000      -2.02600000       1.48970000
C        0.31440000      -3.23680000       0.80550000
C        1.55660000      -4.07870000       1.24750000
C        2.55000000      -4.36920000       0.12770000
C        1.97940000      -2.91370000       2.20130000
H        0.78280000       2.00100000       0.16600000
H       -0.54180000       1.69110000      -0.96490000
H       -0.76460000       1.38940000       0.76770000
H       -0.40700000      -0.76710000      -0.49130000
H        1.15020000      -0.17460000      -1.06810000
H        2.00850000      -0.11080000       1.31180000
H       -0.60910000      -3.53950000       1.30720000
H        0.12460000      -3.16800000      -0.26970000
H        1.30090000      -5.00570000       1.76670000
H        2.82010000      -3.45230000      -0.40950000
H        3.47370000      -4.80700000       0.52150000
H        2.13060000      -5.06980000      -0.60260000
H        3.02690000      -2.60030000       2.16680000
H        1.69800000      -3.09210000       3.24320000
