20
Properties=species:S:1:pos:R:3 gdb_47909=T pbc="F F F"
N       -0.07410000       1.26910000      -0.62060000
C       -0.03160000       0.09140000      -0.14890000
C       -1.31740000      -0.68780000       0.02420000
C       -1.91370000      -0.66340000       1.44630000
O       -1.19280000      -1.39000000       2.42200000
C       -0.01450000      -0.76040000       2.90630000
C        1.24790000      -1.47510000       2.41700000
C        1.26560000      -1.70040000       0.90780000
O        1.16780000      -0.47510000       0.17550000
H        0.86990000       1.66060000      -0.65870000
H       -2.04040000      -0.20180000      -0.63490000
H       -1.21040000      -1.72470000      -0.30860000
H       -2.04050000       0.38380000       1.75870000
H       -2.90560000      -1.12470000       1.40940000
H        0.00580000       0.29540000       2.60680000
H       -0.04630000      -0.78520000       4.00250000
H        2.12480000      -0.89140000       2.72140000
H        1.32640000      -2.45710000       2.89920000
H        2.21790000      -2.14060000       0.60020000
H        0.46930000      -2.39290000       0.62490000
