19
Properties=species:S:1:pos:R:3 gdb_102525=T pbc="F F F"
N        0.04260000       1.36040000       0.29770000
C       -0.06830000      -0.06490000      -0.03140000
C       -1.50620000      -0.38130000      -0.08890000
N       -2.64060000      -0.57630000      -0.19120000
C        0.62190000      -0.56940000      -1.34170000
C        1.97810000       0.10540000      -1.55830000
O        2.52960000      -0.41770000      -2.75560000
C        0.80790000      -2.10120000      -1.31640000
O       -0.31040000      -2.81650000      -0.82530000
H        1.01030000       1.60990000       0.46850000
H       -0.29470000       1.93520000      -0.46840000
H        0.35520000      -0.62310000       0.81290000
H       -0.01770000      -0.29640000      -2.19190000
H        1.85240000       1.19500000      -1.62730000
H        2.63380000      -0.09980000      -0.69330000
H        3.38050000       0.00310000      -2.90840000
H        1.11190000      -2.44260000      -2.31250000
H        1.62730000      -2.34430000      -0.62810000
H       -1.06520000      -2.66140000      -1.40320000
