23
Properties=species:S:1:pos:R:3 gdb_122341=T pbc="F F F"
C       -0.03420000       1.58730000      -0.26270000
C        0.02260000       0.08570000      -0.07450000
C        1.33180000      -0.65560000      -0.09910000
O        2.48310000       0.12640000      -0.26150000
C        0.54770000      -0.56730000       1.19610000
C        1.07540000       0.23210000       2.37030000
C        1.95370000      -0.61470000       3.30090000
C        2.46140000       0.16070000       4.50860000
O        3.27120000      -0.71180000       5.28310000
H        0.88990000       2.07110000       0.05670000
H       -0.18030000       1.83240000      -1.32010000
H       -0.86720000       2.02540000       0.29780000
H       -0.80430000      -0.44340000      -0.54180000
H        1.36670000      -1.61470000      -0.61590000
H        3.19580000      -0.28660000       0.23710000
H        0.03620000      -1.48220000       1.48920000
H        1.65300000       1.08800000       2.00760000
H        0.23280000       0.64560000       2.94110000
H        1.39660000      -1.48970000       3.65770000
H        2.81940000      -1.00590000       2.75100000
H        3.03310000       1.04150000       4.17210000
H        1.60570000       0.53560000       5.09430000
H        3.58550000      -0.22720000       6.05180000
