21
Properties=species:S:1:pos:R:3 gdb_116011=T pbc="F F F"
C       -0.16540000       1.49100000      -0.06120000
C       -0.04470000      -0.03930000      -0.04230000
N       -1.30810000      -0.75600000       0.01950000
C       -2.15770000      -0.73900000       1.21120000
C       -3.49090000      -1.29920000       0.63820000
N       -3.40310000      -1.13950000      -0.82180000
C       -2.17870000      -0.84820000      -1.05180000
O       -1.63470000      -0.64380000      -2.25650000
C       -2.52750000      -0.81190000      -3.36050000
H        0.82900000       1.94760000      -0.09700000
H       -0.72380000       1.82120000      -0.94180000
H       -0.67330000       1.87010000       0.83090000
H        0.47990000      -0.37710000      -0.93990000
H        0.55710000      -0.35810000       0.81640000
H       -1.73410000      -1.35450000       2.01120000
H       -2.28180000       0.28300000       1.60000000
H       -3.60830000      -2.36240000       0.88750000
H       -4.36460000      -0.77630000       1.03840000
H       -3.36630000      -0.11490000      -3.28610000
H       -1.93550000      -0.60830000      -4.25370000
H       -2.92250000      -1.83080000      -3.38360000
