21
Properties=species:S:1:pos:R:3 gdb_112514=T pbc="F F F"
C       -0.29080000       1.43690000       0.00490000
C        0.00890000      -0.06530000       0.00300000
C        0.78460000      -0.54660000      -1.21500000
C        1.00730000      -2.07130000      -1.38260000
C        0.63830000      -1.84890000      -2.87430000
C       -0.27520000      -2.78920000      -3.52410000
N       -0.99120000      -3.54020000      -4.03330000
N        0.05640000      -0.54420000      -2.51170000
C        0.24580000       0.54370000      -3.45030000
H        0.62730000       2.02810000      -0.08630000
H       -0.95260000       1.70970000      -0.82260000
H       -0.78700000       1.73500000       0.93330000
H        0.59440000      -0.32530000       0.89530000
H       -0.92800000      -0.63140000       0.06150000
H        1.74220000      -0.00120000      -1.29150000
H        2.00390000      -2.46480000      -1.18730000
H        0.26150000      -2.66640000      -0.85370000
H        1.54300000      -1.75960000      -3.49830000
H       -0.27990000       0.31570000      -4.38320000
H       -0.17700000       1.46620000      -3.04460000
H        1.31010000       0.72740000      -3.68900000
