14
Properties=species:S:1:pos:R:3 gdb_132990=T pbc="F F F"
C       -0.01430000       1.45480000       0.00890000
N        0.00620000      -0.00540000      -0.02270000
C       -0.10330000      -0.70590000      -1.19600000
C       -0.08060000      -2.06130000      -1.18850000
N        0.05090000      -2.77170000      -0.02270000
C        0.15230000      -2.10880000       1.06640000
F        0.28020000      -2.76460000       2.20580000
C        0.14380000      -0.64400000       1.21410000
O        0.24110000      -0.02490000       2.25730000
H        0.91170000       1.82940000       0.45130000
H       -0.12390000       1.83230000      -1.00760000
H       -0.84350000       1.80110000       0.63000000
H       -0.20590000      -0.12070000      -2.10050000
H       -0.16570000      -2.63000000      -2.10470000
