20
Properties=species:S:1:pos:R:3 gdb_61245=T pbc="F F F"
C        0.24440000       1.62340000      -0.36520000
C        0.15990000       0.14380000      -0.07870000
N        1.42640000      -0.60760000       0.01290000
C        0.56590000      -0.49360000       1.20210000
C        1.13270000       0.25970000       2.38970000
O        0.09800000       0.70690000       3.25080000
C        2.17790000      -0.61090000       3.12300000
C        2.80500000       0.05930000       4.25340000
C        3.32520000       0.62100000       5.17970000
H        1.12380000       2.07120000       0.10170000
H        0.31780000       1.79790000      -1.44390000
H       -0.64680000       2.14120000       0.00390000
H       -0.66040000      -0.35800000      -0.59190000
H        1.33760000      -1.52650000      -0.41130000
H       -0.00240000      -1.38040000       1.49300000
H        1.63210000       1.16740000       2.04310000
H       -0.29870000      -0.06380000       3.67160000
H        1.69270000      -1.53850000       3.46300000
H        2.93700000      -0.91180000       2.39100000
H        3.78250000       1.11740000       5.99900000
