18
Properties=species:S:1:pos:R:3 gdb_72669=T pbc="F F F"
C       -0.26210000       1.53180000       0.09730000
C       -0.02950000       0.04430000       0.00590000
C       -1.26200000      -0.91180000       0.00920000
C       -0.66440000      -1.71660000       1.20320000
C        0.61410000      -0.84910000       1.13480000
O        1.58750000      -1.36760000       0.21030000
C        1.13610000      -0.48530000      -0.84990000
C        1.19870000      -0.33780000       2.36160000
N        1.63040000       0.09960000       3.34130000
H        0.67000000       2.07210000       0.29100000
H       -0.68400000       1.91070000      -0.84130000
H       -0.96660000       1.77680000       0.89860000
H       -2.19880000      -0.40550000       0.25020000
H       -1.40280000      -1.47470000      -0.91650000
H       -1.21970000      -1.58730000       2.13460000
H       -0.46750000      -2.77780000       1.04290000
H        0.87220000      -1.03680000      -1.75930000
H        1.90030000       0.26550000      -1.08720000
