19
Properties=species:S:1:pos:R:3 gdb_71845=T pbc="F F F"
C        0.04570000       1.56800000      -0.00770000
C       -0.03270000       0.06100000      -0.07180000
C        0.26880000      -0.72590000      -1.35350000
C       -0.60020000      -1.89130000      -0.77170000
C        0.32480000      -2.73340000       0.06190000
C        0.92180000      -2.07660000       1.06110000
C        0.35560000      -0.70190000       1.27690000
O       -1.08210000      -0.91470000       1.55320000
C       -1.30930000      -0.77460000       0.16190000
H        1.08710000       1.91120000      -0.03010000
H       -0.47270000       2.02770000      -0.85610000
H       -0.41160000       1.94490000       0.91330000
H       -0.22270000      -0.24040000      -2.20400000
H        1.30350000      -0.96420000      -1.61370000
H       -1.22950000      -2.45320000      -1.46130000
H        0.50520000      -3.77640000      -0.17590000
H        1.64870000      -2.50570000       1.74040000
H        0.82920000      -0.10920000       2.06160000
H       -2.33560000      -0.50240000      -0.09460000
