15
Properties=species:S:1:pos:R:3 gdb_27115=T pbc="F F F"
N       -0.40990000       1.27620000       0.33660000
C       -0.13430000      -0.08020000       0.08410000
C       -1.03980000      -1.03930000      -0.30450000
N       -0.40280000      -2.25960000      -0.37760000
C        0.91340000      -2.08760000      -0.04550000
C        1.11040000      -0.75870000       0.25430000
O       -2.36540000      -0.92050000      -0.65320000
C       -3.26390000      -0.85140000       0.37980000
O       -4.43070000      -0.72070000       0.19000000
H        0.40700000       1.85790000       0.20050000
H       -1.15780000       1.62820000      -0.24970000
H       -0.83250000      -3.10490000      -0.70960000
H        1.60050000      -2.91750000      -0.04680000
H        2.04030000      -0.31040000       0.56920000
H       -2.76200000      -0.92550000       1.36110000
