17
Properties=species:S:1:pos:R:3 gdb_94758=T pbc="F F F"
C        0.22690000       1.57900000      -0.04970000
C        0.06300000       0.06820000       0.01110000
O        0.74110000      -0.50700000      -1.10980000
C        1.23940000      -1.79150000      -0.77830000
C        1.42470000      -1.78220000       0.73390000
O        2.11620000      -0.59840000       1.18430000
C        0.68980000      -0.60240000       1.22050000
C        1.62700000      -3.00150000       1.45640000
C        1.80270000      -4.04900000       2.01900000
H        1.28270000       1.84150000       0.05250000
H       -0.13830000       1.95710000      -1.00790000
H       -0.34180000       2.06070000       0.75160000
H       -1.00720000      -0.20190000      -0.00830000
H        0.53430000      -2.59360000      -1.04680000
H        2.17570000      -1.94650000      -1.32290000
H        0.22580000      -0.55400000       2.20180000
H        1.95970000      -4.96790000       2.52800000
