21
Properties=species:S:1:pos:R:3 gdb_99787=T pbc="F F F"
C        0.97220000       0.02300000       0.34010000
O        0.05000000      -0.96180000      -0.07500000
C       -1.32220000      -0.62930000       0.09470000
C       -2.10360000      -1.69240000      -0.69870000
C       -1.90760000      -1.54790000      -2.20830000
O       -1.73940000      -2.98960000      -0.24360000
C       -1.72700000      -0.63980000       1.55690000
C       -1.80820000       0.58870000       2.35810000
O       -2.98660000      -0.02070000       1.83290000
H        1.96640000      -0.33060000       0.05610000
H        0.78290000       0.98560000      -0.15820000
H        0.95160000       0.18320000       1.42620000
H       -1.53210000       0.37010000      -0.31970000
H       -3.16410000      -1.57640000      -0.45040000
H       -0.84400000      -1.59090000      -2.46180000
H       -2.42400000      -2.35970000      -2.72670000
H       -2.30800000      -0.59440000      -2.56940000
H       -0.77620000      -3.02680000      -0.29550000
H       -1.56800000      -1.59160000       2.06200000
H       -1.69620000       0.53690000       3.44020000
H       -1.53890000       1.54440000       1.90900000
