17
Properties=species:S:1:pos:R:3 gdb_43682=T pbc="F F F"
O        0.05480000      -0.05430000       0.29370000
C        0.02670000       1.14290000       0.09520000
C       -1.28820000       1.89690000      -0.08370000
C       -1.15510000       3.13000000      -1.00590000
C       -0.01580000       4.04620000      -0.49710000
C        1.23470000       3.27960000      -0.16980000
C        1.25540000       1.96430000       0.07870000
C       -0.93630000       2.73120000      -2.39620000
C       -0.75940000       2.39910000      -3.53760000
H       -2.04360000       1.19810000      -0.44760000
H       -1.60440000       2.23620000       0.91270000
H       -2.09400000       3.69550000      -0.96300000
H        0.20260000       4.81970000      -1.24000000
H       -0.35760000       4.57810000       0.40330000
H        2.16130000       3.84840000      -0.13470000
H        2.17820000       1.43520000       0.29470000
H       -0.60570000       2.10300000      -4.54580000
