14
Properties=species:S:1:pos:R:3 gdb_133556=T pbc="F F F"
F       -0.19380000       0.05770000      -0.08940000
C       -0.02110000       1.37410000       0.07500000
F        1.29930000       1.61420000       0.14100000
F       -0.49720000       1.98100000      -1.01950000
C       -0.69170000       1.86950000       1.31730000
C       -0.27260000       3.05290000       2.12700000
C       -0.36330000       1.68520000       2.77790000
C       -1.82970000       1.27960000       2.90330000
O       -2.07170000       1.57300000       1.49390000
H        0.74030000       3.40210000       1.96030000
H       -1.00940000       3.82190000       2.33940000
H        0.48060000       1.19710000       3.24420000
H       -1.97600000       0.21240000       3.09670000
H       -2.46830000       1.87570000       3.56360000
