14
Properties=species:S:1:pos:R:3 gdb_131426=T pbc="F F F"
O        0.19220000       1.38190000       0.25190000
C        0.07070000       0.05170000       0.14880000
N       -0.19800000      -0.53560000      -0.99270000
O       -0.23820000      -1.90210000      -0.68800000
C        0.00980000      -2.07120000       0.62520000
C       -0.03740000      -3.47120000       1.13160000
C       -1.47300000      -3.97500000       1.29790000
O       -1.85380000      -4.59480000       2.25260000
C        0.21230000      -0.86820000       1.22450000
H        0.04790000       1.76060000      -0.62600000
H        0.45300000      -4.13220000       0.40420000
H        0.47980000      -3.56430000       2.08800000
H       -2.14500000      -3.72930000       0.44760000
H        0.42950000      -0.65590000       2.25700000
