19
Properties=species:S:1:pos:R:3 gdb_109728=T pbc="F F F"
C       -0.04350000       1.52380000      -0.05970000
C        0.04210000       0.01740000      -0.16790000
O        1.10650000      -0.53360000      -0.42850000
C       -1.21480000      -0.73920000       0.01790000
C       -1.32270000      -2.14180000      -0.60840000
O       -0.24020000      -2.69040000      -1.28540000
C       -1.29490000      -2.03290000       0.87350000
C       -0.10560000      -2.61060000       1.62360000
O       -0.04560000      -4.01690000       1.44840000
H        0.94220000       1.96510000      -0.20940000
H       -0.74070000       1.91490000      -0.80950000
H       -0.43780000       1.81150000       0.92130000
H       -2.11390000      -0.13270000       0.02600000
H       -2.26180000      -2.37270000      -1.10250000
H        0.52260000      -2.09860000      -1.13060000
H       -2.25040000      -2.14130000       1.37830000
H        0.82670000      -2.12780000       1.31020000
H       -0.22060000      -2.43580000       2.69760000
H        0.08180000      -4.15680000       0.50120000
