11
Properties=species:S:1:pos:R:3 gdb_130601=T pbc="F F F"
O        0.06040000      -0.05450000       0.00200000
C       -0.01880000       1.15640000       0.00970000
C       -1.23260000       1.94830000       0.03010000
C       -1.13880000       3.28850000       0.03620000
O        0.02020000       3.97770000       0.02450000
N        1.22670000       3.32560000       0.00480000
C        1.20030000       2.02930000      -0.00200000
C        2.48790000       1.39500000      -0.02190000
N        3.51480000       0.86520000      -0.03800000
H       -2.19680000       1.45720000       0.04020000
H       -1.97610000       3.97680000       0.05100000
