19
Properties=species:S:1:pos:R:3 gdb_10683=T pbc="F F F"
C       -0.11300000       1.54770000       0.55380000
C       -0.06260000       0.10850000       0.01410000
C        0.99460000      -0.71870000       0.75580000
C       -1.47620000      -0.50330000       0.02100000
C       -1.72430000      -1.93570000       0.37350000
N       -2.12650000      -0.87510000       1.30500000
C       -2.37010000       0.11320000      -0.93480000
C       -3.07570000       0.62570000      -1.76270000
H        0.86250000       2.03290000       0.45160000
H       -0.85210000       2.14450000       0.01330000
H       -0.38340000       1.56000000       1.61590000
H        0.23630000       0.15660000      -1.04050000
H        0.73530000      -0.87580000       1.81000000
H        1.15230000      -1.69670000       0.29360000
H        1.95170000      -0.18890000       0.74210000
H       -2.54810000      -2.45650000      -0.10480000
H       -0.87240000      -2.55990000       0.62300000
H       -1.44160000      -0.80080000       2.05480000
H       -3.71460000       1.07510000      -2.48190000
