21
Properties=species:S:1:pos:R:3 gdb_87718=T pbc="F F F"
C        0.01800000       1.47280000      -0.23420000
C        0.01490000      -0.01700000      -0.01840000
O        1.28930000      -0.68700000      -0.09110000
C        0.61870000      -0.65610000       1.15460000
C        1.13590000      -0.03850000       2.45680000
C        0.23960000      -1.06020000       3.22910000
C       -1.07870000      -0.48150000       3.73040000
C        0.10650000      -1.88370000       1.89620000
O       -1.16020000      -2.33860000       1.48430000
H        0.83590000       1.94810000       0.31310000
H        0.13750000       1.70580000      -1.29750000
H       -0.92990000       1.90960000       0.09940000
H       -0.78860000      -0.56580000      -0.51010000
H        2.20640000      -0.21270000       2.59560000
H        0.92500000       1.02040000       2.62660000
H        0.75060000      -1.59340000       4.03530000
H       -1.59940000       0.06800000       2.94010000
H       -1.75360000      -1.27190000       4.07340000
H       -0.90640000       0.20510000       4.56560000
H        0.85470000      -2.68790000       1.85660000
H       -1.30610000      -3.21770000       1.84590000
