18
Properties=species:S:1:pos:R:3 gdb_13027=T pbc="F F F"
C        0.11870000       1.53830000      -0.05080000
C        0.02720000       0.02140000       0.01650000
O        0.70340000      -0.52050000      -1.12120000
C        1.31850000      -1.75730000      -0.78740000
C        1.51820000      -1.71580000       0.70950000
O        2.13250000      -0.49890000       1.15400000
C        0.70020000      -0.61660000       1.22880000
C        0.07290000      -0.54560000       2.59200000
H        1.16270000       1.84890000       0.03850000
H       -0.27400000       1.89640000      -1.00580000
H       -0.46330000       1.99930000       0.75360000
H       -1.03100000      -0.29480000       0.01250000
H        0.68100000      -2.61830000      -1.05020000
H        2.25320000      -1.83210000      -1.35340000
H        1.75510000      -2.61430000       1.27390000
H        0.01030000       0.49170000       2.93820000
H       -0.94230000      -0.95570000       2.57530000
H        0.66700000      -1.10800000       3.31600000
