13
Properties=species:S:1:pos:R:3 gdb_131578=T pbc="F F F"
O        0.00550000       1.43200000       0.01060000
C       -0.01860000       0.01380000       0.00220000
C       -1.39990000      -0.45060000       0.01250000
C       -2.53090000      -0.86250000       0.02090000
C       -3.84960000      -1.36960000       0.03050000
N       -4.94810000      -0.60910000       0.04050000
N       -5.89180000      -1.53560000       0.04650000
N       -5.45210000      -2.78730000       0.04090000
N       -4.15160000      -2.70520000       0.03060000
H        0.92870000       1.70490000       0.00170000
H        0.48260000      -0.39640000      -0.89010000
H        0.49950000      -0.40720000       0.87970000
H       -6.87570000      -1.31040000       0.05480000
