13
Properties=species:S:1:pos:R:3 gdb_3655=T pbc="F F F"
C        0.09840000       1.53080000       0.04970000
C       -0.03740000       0.05670000      -0.08360000
C       -1.09730000      -0.80140000      -0.04260000
C       -2.55590000      -0.56550000       0.15700000
N       -0.57610000      -2.06580000      -0.23360000
N        0.67050000      -2.02630000      -0.38010000
O        1.07390000      -0.65810000      -0.29010000
H        0.74910000       1.78770000       0.89170000
H        0.54010000       1.96470000      -0.85310000
H       -0.87760000       1.99140000       0.21330000
H       -3.13400000      -0.92030000      -0.70200000
H       -2.92390000      -1.09590000       1.04090000
H       -2.76520000       0.49880000       0.28950000
