24
Properties=species:S:1:pos:R:3 gdb_123090=T pbc="F F F"
C        0.02700000       1.46780000      -0.21980000
C       -0.09470000      -0.05740000      -0.27490000
C       -1.45410000      -0.57090000       0.21180000
C       -1.58330000      -2.09640000       0.15910000
C       -2.94820000      -2.58890000       0.65480000
N       -3.07960000      -4.03580000       0.62990000
C       -3.87090000      -4.69260000      -0.27040000
C       -3.83380000      -6.21130000      -0.17550000
O       -4.56130000      -4.11610000      -1.09200000
H        1.00730000       1.80380000      -0.57200000
H       -0.73390000       1.94810000      -0.84500000
H       -0.10480000       1.83910000       0.80270000
H        0.07400000      -0.40220000      -1.30350000
H        0.70120000      -0.51120000       0.33060000
H       -1.62460000      -0.22500000       1.24120000
H       -2.25120000      -0.11870000      -0.39420000
H       -1.43310000      -2.45090000      -0.86810000
H       -0.78760000      -2.55300000       0.76490000
H       -3.12910000      -2.22550000       1.67510000
H       -3.74740000      -2.20380000       0.01700000
H       -2.50710000      -4.57850000       1.25490000
H       -3.23270000      -6.58940000       0.65590000
H       -4.85730000      -6.58020000      -0.07320000
H       -3.43510000      -6.61250000      -1.11150000
