21
Properties=species:S:1:pos:R:3 gdb_119923=T pbc="F F F"
C       -0.85860000       1.32110000      -2.65550000
C       -0.65170000      -0.18090000      -2.44700000
C        0.71780000      -0.51300000      -1.83650000
C        0.87360000      -1.99720000      -1.57540000
C        1.46230000      -2.93870000      -2.60060000
C        1.96670000      -2.39460000      -3.83720000
N        2.38380000      -1.97160000      -4.83060000
N        2.14100000      -2.66330000      -1.32630000
C        3.39350000      -1.91360000      -1.32420000
H       -0.78640000       1.86700000      -1.70820000
H       -0.10500000       1.73360000      -3.33490000
H       -1.84300000       1.52860000      -3.08550000
H       -1.44340000      -0.57530000      -1.79650000
H       -0.75190000      -0.70430000      -3.40560000
H        1.50710000      -0.14650000      -2.49950000
H        0.83290000       0.02110000      -0.88360000
H        0.06040000      -2.42070000      -0.98470000
H        1.06800000      -3.94670000      -2.70110000
H        3.48380000      -1.15440000      -2.11110000
H        3.49800000      -1.42590000      -0.35090000
H        4.21800000      -2.62260000      -1.44080000
