20
Properties=species:S:1:pos:R:3 gdb_24619=T pbc="F F F"
C       -0.08460000       1.54850000       0.02110000
C        1.46580000       1.53280000      -0.07480000
C        1.43550000       0.09870000       0.52350000
C       -0.05720000      -0.00260000       0.10260000
N        2.38330000      -0.89340000       0.07460000
C        2.61140000      -1.27050000      -1.22910000
C        3.58790000      -2.23920000      -1.23700000
C        3.97160000      -2.46400000       0.11360000
C        3.21390000      -1.62300000       0.89340000
H       -0.43130000       2.00030000       0.95440000
H       -0.63440000       1.99820000      -0.80730000
H        1.80370000       1.51400000      -1.11430000
H        2.03400000       2.29310000       0.46570000
H        1.51670000       0.14390000       1.61220000
H       -0.74200000      -0.50550000       0.78900000
H       -0.15280000      -0.45840000      -0.88650000
H        2.06280000      -0.82030000      -2.04050000
H        3.98140000      -2.73040000      -2.11390000
H        4.71510000      -3.15990000       0.47090000
H        3.18900000      -1.47520000       1.96170000
