22
Properties=species:S:1:pos:R:3 gdb_105177=T pbc="F F F"
C        0.21790000       1.42120000       0.13150000
C        0.01320000      -0.04390000      -0.26950000
C       -1.41680000      -0.54400000      -0.06590000
C       -1.63600000      -2.00580000       0.21520000
N       -1.90550000      -1.02280000       1.24730000
C       -1.04060000      -0.99880000       2.41630000
C       -2.40920000       0.16970000      -0.84070000
C       -3.21060000       0.76780000      -1.51290000
C       -4.19510000       1.48370000      -2.31160000
H        1.23980000       1.74410000      -0.08960000
H       -0.47140000       2.07160000      -0.41440000
H        0.04230000       1.57230000       1.20110000
H        0.25490000      -0.16910000      -1.33170000
H        0.71010000      -0.68590000       0.27760000
H       -2.49980000      -2.51930000      -0.19840000
H       -0.73760000      -2.61780000       0.30750000
H        0.01160000      -1.25950000       2.22460000
H       -1.07380000      -0.00550000       2.87430000
H       -1.43280000      -1.71740000       3.14360000
H       -4.89660000       0.79350000      -2.79340000
H       -4.78130000       2.17470000      -1.69540000
H       -3.71510000       2.07150000      -3.10190000
