22
Properties=species:S:1:pos:R:3 gdb_104581=T pbc="F F F"
C       -1.23650000      -1.06490000       0.14530000
C        0.14240000      -0.40220000       0.20490000
C        1.04490000      -0.57740000      -1.01520000
C        2.28560000       0.32290000      -0.99440000
C        1.89960000       1.77890000      -1.25870000
C        1.98350000       2.23730000      -2.69830000
O        1.51050000       2.49920000      -0.36540000
C        1.14830000      -1.89200000      -1.70020000
N        0.48270000      -0.75750000      -2.36910000
H       -1.86580000      -0.63730000      -0.64290000
H       -1.17870000      -2.14680000      -0.01340000
H       -1.76400000      -0.90600000       1.09010000
H        0.01880000       0.67070000       0.38610000
H        0.69110000      -0.78660000       1.07480000
H        2.76130000       0.26300000      -0.01040000
H        2.99340000      -0.02290000      -1.75260000
H        1.43290000       1.53020000      -3.32880000
H        1.58490000       3.24750000      -2.80060000
H        3.02710000       2.21780000      -3.03500000
H        2.09130000      -2.19940000      -2.14510000
H        0.53260000      -2.71390000      -1.34590000
H       -0.52520000      -0.87830000      -2.32150000
