15
Properties=species:S:1:pos:R:3 gdb_4460=T pbc="F F F"
C        0.15020000       1.49960000       0.06280000
C       -0.04400000       0.03200000      -0.01490000
C       -1.09910000      -0.81660000       0.01190000
C       -2.55530000      -0.52550000       0.14100000
N       -0.63670000      -2.13890000      -0.10620000
C        0.64250000      -1.99850000      -0.19500000
O        1.57420000      -2.94210000      -0.32540000
O        1.10760000      -0.74600000      -0.15230000
H        0.77070000       1.78300000       0.92110000
H        0.63610000       1.89400000      -0.83750000
H       -0.81760000       1.99490000       0.16830000
H       -3.10740000      -0.90430000      -0.72610000
H       -2.97420000      -1.01480000       1.02710000
H       -2.74250000       0.54800000       0.22290000
H        1.10640000      -3.78680000      -0.34290000
