17
Properties=species:S:1:pos:R:3 gdb_64918=T pbc="F F F"
C       -0.02740000       1.57900000      -0.06620000
C       -0.02930000       0.07570000       0.05170000
O        1.20410000      -0.63510000      -0.14910000
C        0.64110000      -0.67460000       1.16730000
C        1.41820000       0.04270000       2.25580000
C        0.11240000      -1.95700000       1.58900000
C       -0.29770000      -3.00830000       2.00300000
C       -1.19460000      -0.61110000      -0.61720000
O       -2.19030000      -0.03280000      -0.96980000
H        0.81140000       2.03490000       0.45800000
H        0.02870000       1.86280000      -1.12140000
H       -0.96450000       1.97880000       0.32920000
H        1.90070000       0.94100000       1.87130000
H        0.75580000       0.31170000       3.08350000
H        2.19220000      -0.62490000       2.64480000
H       -0.66950000      -3.94070000       2.35120000
H       -1.04450000      -1.69740000      -0.77630000
