21
Properties=species:S:1:pos:R:3 gdb_111581=T pbc="F F F"
C        0.17150000       1.33700000       0.10450000
O       -0.27960000       0.03920000      -0.21330000
C        0.51420000      -0.60780000      -1.17240000
C        1.91750000      -1.15200000      -0.77840000
C        1.91390000      -1.90930000       0.57080000
C        1.24020000      -3.12870000      -0.10750000
C       -0.27520000      -2.92020000      -0.35560000
C        0.03910000      -2.01680000      -1.57180000
C        1.54030000      -2.49040000      -1.51530000
H        1.18330000       1.32900000       0.53630000
H        0.18220000       1.99010000      -0.78260000
H       -0.52110000       1.75310000       0.84020000
H        0.61450000       0.02070000      -2.07320000
H        2.78360000      -0.53390000      -1.01800000
H        2.93530000      -2.14640000       0.88310000
H        1.38580000      -1.44270000       1.40820000
H        1.56860000      -4.12190000       0.20130000
H       -0.74740000      -3.85040000      -0.68550000
H       -0.87050000      -2.48510000       0.45180000
H       -0.61270000      -2.08970000      -2.44270000
H        2.09610000      -2.94870000      -2.32920000
