25
Properties=species:S:1:pos:R:3 gdb_63978=T pbc="F F F"
C        0.35590000       1.41350000      -0.27060000
C        0.02040000      -0.06220000      -0.05870000
C       -1.49510000      -0.26410000      -0.09120000
C        0.80520000      -1.02710000      -1.01200000
C        1.55670000      -1.64050000       0.19940000
C        3.01620000      -1.21420000       0.45170000
C        3.02580000      -0.78670000       1.93110000
C        1.68690000      -0.03550000       2.11310000
C        0.70210000      -0.77460000       1.17870000
H        1.43430000       1.59670000      -0.30180000
H       -0.05820000       1.75870000      -1.22550000
H       -0.06770000       2.04290000       0.52100000
H       -1.91900000       0.06350000      -1.04790000
H       -1.75820000      -1.31870000       0.04540000
H       -1.98640000       0.30780000       0.70530000
H        0.15800000      -1.73400000      -1.53890000
H        1.44190000      -0.53460000      -1.75400000
H        1.44240000      -2.72240000       0.30650000
H        3.73930000      -2.00470000       0.22930000
H        3.27660000      -0.35630000      -0.18120000
H        3.04190000      -1.67750000       2.57150000
H        3.89710000      -0.18130000       2.20010000
H        1.35260000      -0.03030000       3.15460000
H        1.80690000       1.01180000       1.81900000
H       -0.03270000      -1.34410000       1.75380000
