17
Properties=species:S:1:pos:R:3 gdb_24674=T pbc="F F F"
C        0.94290000       0.68390000       0.46160000
C        0.48550000       0.19780000      -0.89370000
C       -0.52540000       0.39700000       0.21800000
N       -1.27120000      -0.64290000       0.84290000
C       -0.83260000      -1.79340000       1.10720000
N       -1.54280000      -2.81520000       1.71340000
C       -0.73870000      -3.94100000       1.84570000
C        0.45360000      -3.62670000       1.33020000
O        0.43320000      -2.32040000       0.86840000
H        1.49750000      -0.01620000       1.07370000
H        1.24240000       1.72040000       0.57520000
H        0.46630000       0.89590000      -1.72390000
H        0.74230000      -0.81870000      -1.16420000
H       -1.14010000       1.28490000       0.10700000
H       -2.49840000      -2.70550000       1.99770000
H       -1.08980000      -4.85500000       2.29220000
H        1.37460000      -4.16850000       1.21330000
