21
Properties=species:S:1:pos:R:3 gdb_112633=T pbc="F F F"
C        0.02170000       1.60150000      -0.15020000
C        0.03500000       0.08120000       0.03280000
C       -1.36560000      -0.55460000       0.11700000
C       -1.36400000      -2.09850000       0.07880000
C       -2.16670000      -2.53460000       1.28510000
C       -2.42190000      -3.98000000       1.55750000
C       -2.56850000      -1.48480000       2.01890000
C       -2.11500000      -0.21470000       1.42460000
O       -2.29170000       0.89840000       1.87300000
H        1.04210000       1.99630000      -0.18550000
H       -0.47400000       1.87620000      -1.08860000
H       -0.51640000       2.08760000       0.66530000
H        0.57170000      -0.38460000      -0.80370000
H        0.59770000      -0.18180000       0.93860000
H       -1.97360000      -0.15970000      -0.70730000
H       -1.79370000      -2.50260000      -0.84640000
H       -0.34550000      -2.50620000       0.13850000
H       -1.47660000      -4.52900000       1.65260000
H       -3.00290000      -4.12940000       2.47050000
H       -2.96290000      -4.44140000       0.72170000
H       -3.14090000      -1.52210000       2.93790000
