23
Properties=species:S:1:pos:R:3 gdb_101235=T pbc="F F F"
C       -0.01890000       1.52070000      -0.26110000
C       -0.04050000       0.02290000       0.04890000
C       -1.45090000      -0.58240000      -0.01400000
O       -2.06630000      -0.35180000      -1.27470000
C       -1.43480000      -2.08140000       0.28170000
C       -2.76410000      -2.85750000       0.21170000
C       -2.05920000      -3.70790000      -0.86690000
C       -2.69580000      -3.82860000      -2.23500000
O       -0.90830000      -2.81500000      -0.85890000
H        1.00300000       1.91170000      -0.25580000
H       -0.45910000       1.71470000      -1.24240000
H       -0.59700000       2.08550000       0.47920000
H        0.59850000      -0.52060000      -0.65950000
H        0.37650000      -0.16370000       1.04720000
H       -2.09320000      -0.09000000       0.72940000
H       -1.62110000      -0.96050000      -1.88040000
H       -0.84460000      -2.28730000       1.18500000
H       -3.07630000      -3.37500000       1.11950000
H       -3.58700000      -2.25670000      -0.18020000
H       -1.75520000      -4.69770000      -0.49950000
H       -3.04280000      -2.85240000      -2.58730000
H       -1.97950000      -4.22950000      -2.95940000
H       -3.55520000      -4.50700000      -2.19520000
