21
Properties=species:S:1:pos:R:3 gdb_89878=T pbc="F F F"
C       -1.10770000       0.98870000      -0.05910000
C        0.00370000      -0.04150000       0.06110000
C        1.25070000       0.09840000      -0.86660000
C        2.12560000      -0.23750000       0.35050000
C        3.08910000      -1.36080000       0.45220000
C        3.59210000       0.07700000       0.60230000
C        4.39990000       0.64840000      -0.49300000
O        5.27190000       1.47200000      -0.35620000
C        0.95220000       0.02950000       1.29920000
H       -0.71070000       2.00660000       0.02770000
H       -1.61870000       0.91140000      -1.02530000
H       -1.85960000       0.85560000       0.72660000
H       -0.41000000      -1.05140000      -0.02780000
H        1.31300000      -0.56910000      -1.73010000
H        1.38470000       1.12990000      -1.21000000
H        3.09910000      -1.97290000       1.34800000
H        3.36730000      -1.88610000      -0.45750000
H        3.86490000       0.41980000       1.59540000
H        4.13910000       0.25100000      -1.50340000
H        0.98530000       1.03740000       1.72720000
H        0.78700000      -0.68980000       2.10590000
