19
Properties=species:S:1:pos:R:3 gdb_88731=T pbc="F F F"
C       -0.10470000       1.48660000      -0.06740000
C       -0.00680000      -0.01440000       0.09760000
C        1.27090000      -0.75230000      -0.19930000
C        0.76100000      -0.68000000       1.22580000
C        1.50600000       0.11820000       2.23420000
O        0.91840000       0.28000000       3.51730000
C        2.12540000      -0.47290000       3.46040000
C        2.05560000      -1.93990000       3.73860000
O        1.05340000      -2.60800000       3.70060000
H        0.84480000       1.98890000       0.14090000
H       -0.38470000       1.74040000      -1.09540000
H       -0.86030000       1.91370000       0.60060000
H       -0.91970000      -0.54070000      -0.16860000
H        1.23400000      -1.70960000      -0.70690000
H        2.14170000      -0.15230000      -0.44890000
H        0.31540000      -1.57760000       1.63760000
H        2.00670000       1.01350000       1.86190000
H        3.00530000       0.02370000       3.87380000
H        3.04560000      -2.39040000       3.97780000
