25
Properties=species:S:1:pos:R:3 gdb_96233=T pbc="F F F"
C       -0.02880000       1.23570000      -0.47260000
C        0.09800000      -0.25930000      -0.13480000
C        0.79160000      -1.00090000      -1.29240000
C        0.64450000      -2.52670000      -1.29240000
C        1.40010000      -3.26660000      -0.17810000
C        0.90700000      -3.02910000       1.23050000
C        0.61970000      -1.86820000       1.82130000
C        0.73430000      -0.46130000       1.26820000
C        2.19550000       0.02720000       1.37980000
H        0.94670000       1.69260000      -0.67060000
H       -0.64060000       1.37740000      -1.36950000
H       -0.49930000       1.79420000       0.34380000
H       -0.92200000      -0.66200000      -0.06020000
H        0.36750000      -0.62120000      -2.23080000
H        1.85680000      -0.73330000      -1.32410000
H       -0.42050000      -2.78740000      -1.23630000
H        1.00550000      -2.90820000      -2.25580000
H        1.35190000      -4.34170000      -0.38400000
H        2.46790000      -3.00700000      -0.24230000
H        0.79800000      -3.92710000       1.83620000
H        0.30750000      -1.91570000       2.86370000
H        0.14610000       0.17810000       1.94010000
H        2.86970000      -0.57170000       0.76080000
H        2.29700000       1.07480000       1.08040000
H        2.54340000      -0.05800000       2.41380000
