21
Properties=species:S:1:pos:R:3 gdb_116373=T pbc="F F F"
O        0.03360000       1.40100000       0.34200000
C        0.05570000       0.03940000      -0.02530000
C       -1.35610000      -0.55030000      -0.06160000
C       -1.34770000      -2.04170000      -0.40840000
C       -2.69810000      -2.69560000      -0.58210000
C       -3.78320000      -2.54190000       0.17790000
C       -3.93240000      -1.67250000       1.40350000
C       -3.30970000      -0.27770000       1.31850000
O       -1.89520000      -0.28510000       1.23200000
H       -0.55000000       1.44100000       1.11030000
H        0.51030000      -0.02410000      -1.01920000
H        0.67350000      -0.55720000       0.66710000
H       -1.94730000      -0.00030000      -0.81100000
H       -0.77170000      -2.16600000      -1.33340000
H       -0.78190000      -2.56860000       0.37410000
H       -2.76580000      -3.39910000      -1.40930000
H       -4.65980000      -3.13160000      -0.08200000
H       -4.99830000      -1.54310000       1.62680000
H       -3.50180000      -2.18600000       2.27560000
H       -3.73590000       0.27270000       0.46570000
H       -3.54700000       0.27780000       2.23240000
