18
Properties=species:S:1:pos:R:3 gdb_40569=T pbc="F F F"
C       -0.08680000       1.49700000      -0.07880000
O        1.19130000       0.89000000       0.07840000
C        0.03760000       0.04330000       0.08840000
C       -0.29220000      -0.61270000       1.39410000
N       -0.37160000       0.04690000       2.47120000
C       -0.71730000      -0.65000000       3.70400000
C       -1.41080000      -1.99240000       3.45310000
C       -0.62910000      -2.74580000       2.38560000
O       -0.46880000      -1.94960000       1.20230000
H       -0.42810000       2.07990000       0.77300000
H       -0.29890000       1.90100000      -1.06810000
H       -0.05520000      -0.61250000      -0.77470000
H        0.19870000      -0.79510000       4.29350000
H       -1.35710000       0.01110000       4.29860000
H       -1.46990000      -2.59240000       4.36680000
H       -2.43460000      -1.82380000       3.10040000
H        0.36940000      -3.01580000       2.75390000
H       -1.13350000      -3.65910000       2.06140000
