20
Properties=species:S:1:pos:R:3 gdb_36865=T pbc="F F F"
C        0.28450000       1.03400000      -0.85540000
C       -0.02620000      -0.09700000       0.11170000
C       -0.66660000       0.19240000       1.44370000
C       -1.45700000      -0.50170000       0.36180000
C        1.56970000       1.73150000      -0.53200000
N        2.65450000       1.65270000      -1.18840000
C        3.63660000       2.48790000      -0.48180000
C        2.86610000       3.05350000       0.74010000
O        1.53800000       2.50660000       0.59140000
H        0.36220000       0.65580000      -1.87780000
H       -0.52760000       1.77030000      -0.82550000
H        0.70460000      -0.90060000       0.09330000
H       -0.35010000      -0.38700000       2.30380000
H       -0.90620000       1.22530000       1.66980000
H       -2.23690000       0.06250000      -0.13940000
H       -1.67980000      -1.55650000       0.47830000
H        4.50120000       1.88320000      -0.18820000
H        4.00510000       3.27590000      -1.14760000
H        3.26850000       2.72380000       1.70250000
H        2.78980000       4.14450000       0.74520000
