17
Properties=species:S:1:pos:R:3 gdb_49204=T pbc="F F F"
O       -0.08670000      -0.07420000       0.02790000
C       -0.04520000       1.13520000       0.10360000
C        1.18420000       1.93830000       0.03190000
C        1.07510000       3.28010000       0.13670000
C        2.13220000       4.26910000       0.05340000
C        3.46140000       4.06960000       0.06520000
C        4.22940000       2.79780000       0.27440000
O        3.51040000       1.68220000       0.72750000
C        2.49210000       1.21200000      -0.14530000
H       -0.97490000       1.73450000       0.23170000
H        0.07020000       3.68220000       0.26310000
H        1.78980000       5.29560000      -0.05210000
H        4.10250000       4.94090000      -0.06290000
H        4.78930000       2.56820000      -0.65220000
H        4.99050000       2.98130000       1.04490000
H        2.33620000       0.15550000       0.08600000
H        2.82440000       1.27690000      -1.19340000
