15
Properties=species:S:1:pos:R:3 gdb_33620=T pbc="F F F"
N        0.05710000      -1.19410000       0.02040000
C        0.01560000      -0.03700000       0.03040000
C       -0.04390000       1.38750000       0.04160000
C       -0.71320000       2.35850000       1.05580000
C        0.34940000       3.34110000       0.74890000
C        1.22070000       2.35950000      -0.05770000
C        0.88850000       2.63400000      -1.54290000
C       -0.55280000       2.33090000      -1.11130000
N       -0.93060000       3.34230000      -0.04190000
H       -1.38680000       2.21260000       1.89030000
H        0.63360000       4.25270000       1.25670000
H        2.20560000       2.08220000       0.30870000
H        1.10660000       3.62300000      -1.95220000
H        1.27960000       1.85000000      -2.19750000
H       -1.36590000       2.09200000      -1.79270000
