18
Properties=species:S:1:pos:R:3 gdb_31618=T pbc="F F F"
C        0.25010000       0.80440000      -0.60040000
N       -0.42750000       0.13210000       0.51920000
C        0.39740000      -0.59300000       1.38620000
N        0.81060000      -0.19640000       2.57990000
C        1.53750000      -1.24550000       3.06770000
O        2.11430000      -1.18960000       4.29020000
C        1.58900000      -2.28180000       2.17660000
N        0.82860000      -1.84770000       1.09030000
C        0.49120000      -2.62360000      -0.08280000
H        0.71270000       0.06000000      -1.25400000
H       -0.49460000       1.34760000      -1.18830000
H        1.03020000       1.50770000      -0.27530000
H       -0.93070000       0.81340000       1.07570000
H        1.89830000      -0.31920000       4.64540000
H        2.06910000      -3.24370000       2.19650000
H        0.26150000      -3.65250000       0.20740000
H       -0.39150000      -2.17960000      -0.54670000
H        1.31020000      -2.64160000      -0.81140000
