20
Properties=species:S:1:pos:R:3 gdb_126508=T pbc="F F F"
C        0.06450000       1.61850000      -0.17530000
C        0.04220000       0.08870000      -0.19940000
C       -1.34180000      -0.49330000       0.14680000
C       -1.39090000      -1.99090000       0.10540000
C       -1.41310000      -2.88910000       1.13390000
C       -1.42120000      -2.75280000       2.61550000
O       -1.43630000      -4.14710000       0.64880000
N       -1.42980000      -4.10740000      -0.74300000
C       -1.40190000      -2.83500000      -1.04410000
H        1.05660000       2.00550000      -0.42640000
H       -0.64850000       2.03700000      -0.89450000
H       -0.20230000       2.00410000       0.81510000
H        0.34510000      -0.27210000      -1.19020000
H        0.78200000      -0.30930000       0.50560000
H       -1.63980000      -0.14220000       1.14220000
H       -2.08400000      -0.08230000      -0.55000000
H       -2.28580000      -3.26430000       3.05070000
H       -0.52150000      -3.19460000       3.05700000
H       -1.46170000      -1.69990000       2.90120000
H       -1.39570000      -2.54500000      -2.08660000
