16
Properties=species:S:1:pos:R:3 gdb_127796=T pbc="F F F"
C        0.33550000       1.35880000       0.18860000
N        0.09690000      -0.06950000       0.12500000
N       -0.04890000      -0.67380000      -1.07500000
N       -0.25970000      -1.93960000      -0.85710000
C       -0.25080000      -2.16130000       0.48360000
C       -0.02270000      -0.97050000       1.13450000
C        0.07440000      -0.63000000       2.59370000
C        1.38920000      -0.13210000       3.00050000
C        2.46830000       0.28400000       3.32550000
H        1.24580000       1.56710000       0.75510000
H        0.44250000       1.71030000      -0.83720000
H       -0.50710000       1.87300000       0.66140000
H       -0.40250000      -3.14390000       0.90160000
H       -0.69160000       0.11040000       2.86340000
H       -0.16790000      -1.53200000       3.16630000
H        3.42480000       0.63950000       3.62050000
