21
Properties=species:S:1:pos:R:3 gdb_87458=T pbc="F F F"
C        0.01010000       1.53660000      -0.12890000
C       -0.02940000       0.04180000       0.05400000
O        1.24890000      -0.65300000      -0.05150000
C        0.57860000      -0.64090000       1.18610000
C        1.14430000      -0.24680000       2.55670000
C       -0.18560000      -0.81230000       3.14050000
C        0.24120000      -1.86370000       2.06180000
C       -0.46170000      -3.12910000       1.65640000
C        1.69860000      -1.70450000       2.62370000
H        0.82560000       1.97780000       0.44960000
H        0.15750000       1.79270000      -1.18340000
H       -0.93390000       1.98740000       0.19660000
H       -0.83250000      -0.46990000      -0.48020000
H        1.65690000       0.67130000       2.84030000
H       -0.13600000      -1.15520000       4.17720000
H       -1.10010000      -0.24470000       2.94650000
H       -1.48910000      -2.92460000       1.33520000
H        0.06160000      -3.61120000       0.82380000
H       -0.50610000      -3.84210000       2.48630000
H        2.51570000      -1.95210000       1.94300000
H        1.86690000      -2.10570000       3.62730000
