15
Properties=species:S:1:pos:R:3 gdb_45332=T pbc="F F F"
N       -0.27500000       1.10520000      -0.58340000
C       -0.16660000      -0.02290000      -0.05330000
C       -1.13780000      -0.98300000       0.63100000
C        0.05440000      -1.98200000       0.70080000
C        0.17500000      -3.14740000      -0.29950000
O        1.30650000      -2.80610000      -1.12440000
C        1.60240000      -1.47660000      -1.02550000
O        2.30220000      -0.88300000      -1.78860000
N        0.93010000      -0.95590000       0.09750000
H        0.61110000       1.41850000      -0.98480000
H       -1.52470000      -0.64180000       1.59270000
H       -1.97160000      -1.29280000      -0.00330000
H        0.36210000      -2.26650000       1.70910000
H        0.38380000      -4.10540000       0.17890000
H       -0.70730000      -3.25220000      -0.94140000
