19
Properties=species:S:1:pos:R:3 gdb_119624=T pbc="F F F"
C        0.01320000       1.34120000       0.19260000
O        0.00930000      -0.06650000       0.15320000
C       -1.27320000      -0.60550000      -0.08360000
C       -1.15530000      -2.09950000      -0.11480000
C       -0.16490000      -2.78390000      -1.03830000
O       -0.56150000      -4.15110000      -1.08940000
C       -1.94070000      -4.26420000      -0.76490000
C       -2.26350000      -3.04150000       0.06660000
O       -1.32050000      -2.81690000       1.11880000
H        1.04240000       1.65920000       0.37330000
H       -0.33370000       1.77710000      -0.75810000
H       -0.62670000       1.72780000       1.00110000
H       -1.98230000      -0.31080000       0.70570000
H       -1.67000000      -0.24080000      -1.04790000
H       -0.20250000      -2.31110000      -2.03330000
H        0.86350000      -2.74230000      -0.67050000
H       -2.57810000      -4.27340000      -1.66530000
H       -2.08320000      -5.20760000      -0.22780000
H       -3.29140000      -2.74440000       0.25910000
