19
Properties=species:S:1:pos:R:3 gdb_36293=T pbc="F F F"
N        0.10320000      -1.12170000       0.11870000
C        0.05880000       0.02670000       0.23490000
C       -0.01200000       1.48790000       0.35730000
N        1.30400000       2.07900000       0.14780000
C        1.77570000       2.14380000      -1.29410000
C        0.93500000       3.43230000      -1.49760000
C        1.30630000       3.58880000       0.00090000
C        2.82630000       3.83130000      -0.04820000
C        3.19470000       2.69580000      -1.06420000
H       -0.81320000       1.83450000      -0.31890000
H       -0.33790000       1.72920000       1.37630000
H        1.65800000       1.24720000      -1.90270000
H        1.29300000       4.18430000      -2.20660000
H       -0.12460000       3.24400000      -1.67210000
H        0.70990000       4.16630000       0.70880000
H        3.07390000       4.83250000      -0.40960000
H        3.28820000       3.68380000       0.92930000
H        3.85140000       1.94170000      -0.62820000
H        3.64790000       3.07050000      -1.98520000
