23
Properties=species:S:1:pos:R:3 gdb_104410=T pbc="F F F"
C       -0.20100000       1.72760000      -0.20520000
C       -0.26280000       0.19610000      -0.14910000
C        0.71570000      -0.50010000      -1.10430000
O        0.45120000      -0.10930000      -2.46010000
C        2.20700000      -0.26800000      -0.76200000
O        2.91890000      -1.44590000      -1.11620000
C        2.01790000      -2.36500000      -1.73590000
C        0.63990000      -2.04720000      -1.14070000
C        0.43600000      -2.71910000       0.22100000
H        0.79090000       2.10720000       0.06450000
H       -0.44870000       2.09990000      -1.20470000
H       -0.92020000       2.16920000       0.49050000
H       -0.06580000      -0.13540000       0.87570000
H       -1.27750000      -0.13280000      -0.40230000
H        0.74980000       0.79810000      -2.57540000
H        2.60360000       0.59600000      -1.31560000
H        2.35360000      -0.07230000       0.30880000
H        2.01150000      -2.22380000      -2.82460000
H        2.36760000      -3.37730000      -1.51050000
H       -0.16290000      -2.33580000      -1.82530000
H        1.23710000      -2.45920000       0.92090000
H       -0.51900000      -2.44390000       0.67660000
H        0.44340000      -3.80740000       0.10410000
