14
Properties=species:S:1:pos:R:3 gdb_123620=T pbc="F F F"
C        0.04550000       1.48180000      -0.03780000
C        1.29570000       0.68880000       0.15650000
N       -0.00660000       0.02380000      -0.04100000
C       -0.03320000      -0.57220000      -1.39480000
C        1.25940000      -0.11710000      -2.04520000
C        2.14910000       0.54920000      -1.08360000
O        3.29880000       0.89740000      -1.22080000
N        1.93980000      -0.54230000      -4.33820000
N        1.60830000      -0.34970000      -3.27060000
H       -0.42140000       1.95360000       0.82130000
H       -0.07390000       2.01200000      -0.98080000
H        1.78190000       0.61810000       1.12310000
H       -0.07410000      -1.66280000      -1.29020000
H       -0.93430000      -0.25010000      -1.92770000
