14
Properties=species:S:1:pos:R:3 gdb_133265=T pbc="F F F"
C        0.03150000       1.44550000       0.20560000
N        0.02180000       0.00090000       0.03330000
C        0.50810000      -0.58170000      -0.99560000
C        0.47670000      -2.02840000      -1.12560000
C        0.98990000      -2.62390000      -2.20850000
O        1.56450000      -1.97010000      -3.24650000
N        1.64040000      -0.58990000      -3.21290000
C        1.15730000       0.00690000      -2.18850000
F        1.27250000       1.32670000      -2.24020000
H        1.04670000       1.86010000       0.21690000
H       -0.52410000       1.96590000      -0.58370000
H       -0.44120000       1.67610000       1.16330000
H        0.03090000      -2.61120000      -0.33040000
H        1.00930000      -3.69170000      -2.38760000
