16
Properties=species:S:1:pos:R:3 gdb_29876=T pbc="F F F"
C       -0.09770000       1.49020000       0.00420000
N       -0.00680000       0.03710000       0.00380000
C        0.02310000      -0.67360000      -1.18340000
C        0.03760000      -2.01530000      -1.19290000
C        0.01390000      -2.76590000       0.07200000
O       -0.00710000      -3.98180000       0.11520000
N        0.03330000      -1.98830000       1.23950000
C        0.01680000      -0.69710000       1.17410000
N       -0.04230000       0.03350000       2.34700000
H        0.84070000       1.95880000       0.32710000
H       -0.31230000       1.83060000      -1.00950000
H       -0.90490000       1.82140000       0.66290000
H        0.02850000      -0.06520000      -2.08030000
H        0.05780000      -2.56710000      -2.12330000
H        0.10760000      -0.56590000       3.14670000
H        0.48170000       0.89510000       2.38790000
