11
Properties=species:S:1:pos:R:3 gdb_130906=T pbc="F F F"
O       -0.07160000      -0.00800000      -0.00230000
C        0.01390000       1.19040000       0.00690000
C        1.30320000       1.93880000      -0.00080000
N        2.48270000       1.36010000      -0.01850000
O        3.36310000       2.42180000      -0.01920000
C        2.61720000       3.55140000      -0.00140000
N        1.33690000       3.31100000       0.01010000
C        3.28730000       4.79110000       0.00150000
C        3.86920000       5.84220000       0.00380000
H       -0.86690000       1.86260000       0.02190000
H        4.37880000       6.77530000       0.00600000
