14
Properties=species:S:1:pos:R:3 gdb_5185=T pbc="F F F"
N        0.19960000       1.28980000       0.00390000
C        0.05190000       0.02190000       0.00120000
N       -1.17450000      -0.58530000       0.01080000
C       -2.41390000       0.05360000       0.02540000
C       -2.69920000       1.38930000       0.03260000
O       -4.05520000       1.56430000       0.04670000
C       -4.62440000       0.33830000       0.04830000
C       -3.67650000      -0.63290000       0.03570000
H        1.18830000       1.52690000      -0.00480000
H        0.86420000      -0.71430000      -0.00890000
H       -1.18740000      -1.59040000       0.00870000
H       -2.08420000       2.26740000       0.02930000
H       -5.70150000       0.31530000       0.05900000
H       -3.84110000      -1.69970000       0.03380000
