15
Properties=species:S:1:pos:R:3 gdb_11865=T pbc="F F F"
N       -0.17530000       1.26020000       0.00840000
C        0.01660000       0.00680000       0.00050000
O       -1.06200000      -0.84260000       0.00240000
C       -0.60290000      -2.17760000      -0.00750000
C       -1.42270000      -3.19600000       0.74670000
C       -1.43170000      -3.18790000      -0.76260000
C        0.86670000      -2.11270000      -0.01600000
C        1.23220000      -0.82710000      -0.01130000
H        0.71940000       1.74620000       0.00560000
H       -0.89860000      -3.99040000       1.26630000
H       -2.29680000      -2.80860000       1.25690000
H       -2.31190000      -2.79520000      -1.25810000
H       -0.91390000      -3.97670000      -1.29700000
H        1.50110000      -2.98900000      -0.02450000
H        2.23190000      -0.41690000      -0.01510000
