12
Properties=species:S:1:pos:R:3 gdb_21463=T pbc="F F F"
N       -0.07370000       1.27300000      -0.10460000
C       -0.00590000       0.02750000       0.03150000
O       -1.17000000      -0.69170000      -0.12130000
C       -1.14380000      -2.02870000      -0.07230000
C       -2.18110000      -2.90340000       0.02750000
C       -1.52030000      -4.15740000       0.00040000
N       -0.21780000      -4.05780000      -0.10330000
O        0.02800000      -2.66620000      -0.15640000
H        0.84230000       1.69170000       0.04560000
H        0.85990000      -0.59140000       0.26730000
H       -3.22950000      -2.67950000       0.11020000
H       -1.95680000      -5.14520000       0.05660000
