23
Properties=species:S:1:pos:R:3 gdb_60060=T pbc="F F F"
C       -1.53090000      -0.33900000      -0.18810000
C       -0.04160000      -0.08660000       0.08370000
C        0.39760000      -0.76960000       1.38580000
C        0.79110000      -0.51240000      -1.14010000
C        2.29350000      -0.25030000      -1.05590000
O        2.46980000       1.08070000      -0.62810000
C        3.15660000      -1.34110000      -0.35540000
O        3.67650000      -1.79580000      -1.61840000
C        3.08090000      -0.68930000      -2.32040000
H       -1.86570000       0.17460000      -1.09580000
H       -1.73280000      -1.40930000      -0.31860000
H       -2.14850000       0.01480000       0.64400000
H        0.10520000       0.99210000       0.20990000
H        0.32840000      -1.86170000       1.30850000
H        1.42600000      -0.50910000       1.65180000
H       -0.24350000      -0.45920000       2.21770000
H        0.64250000      -1.58070000      -1.34620000
H        0.41210000       0.02740000      -2.01780000
H        3.41370000       1.26790000      -0.58850000
H        3.94110000      -0.91990000       0.29220000
H        2.63760000      -2.13810000       0.18570000
H        2.49580000      -1.01350000      -3.18920000
H        3.82700000       0.05140000      -2.64670000
