13
Properties=species:S:1:pos:R:3 gdb_33312=T pbc="F F F"
N        0.09540000      -3.69190000      -0.08630000
C        0.05240000      -2.53180000      -0.04840000
C        0.00480000      -1.16880000      -0.00410000
C       -0.03990000       0.03730000       0.03460000
C       -0.09030000       1.46000000       0.08060000
N       -1.15130000       2.14810000      -0.06720000
C       -0.73690000       3.55450000       0.05450000
C        0.79350000       3.50050000       0.30350000
O        1.09720000       2.08260000       0.29920000
H       -0.99960000       4.09200000      -0.86230000
H       -1.28490000       4.02560000       0.87680000
H        1.38400000       3.97360000      -0.48490000
H        1.09580000       3.90650000       1.27200000
