17
Properties=species:S:1:pos:R:3 gdb_127659=T pbc="F F F"
C       -0.45170000       1.33010000      -0.05010000
N        0.01820000      -0.04280000      -0.00890000
N        0.21090000      -0.63130000      -1.21000000
C        0.63010000      -1.85660000      -1.19130000
N        0.89810000      -2.61740000      -0.07840000
C        0.71560000      -2.05920000       1.07700000
C        0.98620000      -2.82380000       2.33160000
C        0.24130000      -0.66860000       1.21800000
N        0.07450000      -0.15520000       2.38460000
H        0.26360000       1.99960000       0.44160000
H       -0.55460000       1.60750000      -1.09710000
H       -1.42030000       1.42360000       0.45460000
H        0.78320000      -2.32450000      -2.15650000
H        1.32610000      -3.82990000       2.08630000
H        1.73540000      -2.30190000       2.93590000
H        0.08370000      -2.86290000       2.95030000
H       -0.25470000       0.80720000       2.34780000
