18
Properties=species:S:1:pos:R:3 gdb_85236=T pbc="F F F"
C       -0.02080000       1.60030000       0.05820000
C        0.01210000       0.07210000       0.01030000
N        0.75340000      -0.44730000      -1.13620000
C        1.76440000      -1.32670000      -0.85680000
O        2.47230000      -1.90300000      -1.65330000
C        1.81730000      -1.44500000       0.66260000
C        2.40350000      -2.66720000       1.29650000
O        2.13440000      -0.15490000       1.24130000
C        0.76650000      -0.55940000       1.17840000
H        0.99520000       1.99150000       0.14770000
H       -0.48060000       2.01070000      -0.84650000
H       -0.60920000       1.94270000       0.91530000
H       -1.01570000      -0.31940000       0.00470000
H        0.62060000      -0.10310000      -2.07420000
H        3.41760000      -2.82730000       0.91950000
H        2.43740000      -2.55660000       2.38270000
H        1.81290000      -3.55330000       1.04450000
H        0.26610000      -0.70980000       2.13080000
