17
Properties=species:S:1:pos:R:3 gdb_50818=T pbc="F F F"
N       -0.84190000      -0.41490000      -1.07740000
C       -0.09720000      -0.14660000      -0.08300000
N       -0.35610000       0.87390000       0.82440000
C       -1.39460000       1.78940000       0.85070000
O       -2.27660000       1.90960000       0.04450000
C        1.20200000      -0.88100000       0.23470000
C        2.46110000      -0.44340000      -0.55830000
C        3.06200000      -0.15210000       0.82990000
O        1.81430000      -0.49410000       1.48800000
H       -0.45750000      -1.20870000      -1.59370000
H        0.30610000       0.90390000       1.59000000
H       -1.30100000       2.43220000       1.75090000
H        1.00440000      -1.95930000       0.20980000
H        2.94840000      -1.22830000      -1.13670000
H        2.30800000       0.43210000      -1.19010000
H        3.86940000      -0.82260000       1.14270000
H        3.35580000       0.88340000       1.03020000
