19
Properties=species:S:1:pos:R:3 gdb_63711=T pbc="F F F"
C       -0.00630000       1.56170000       0.10600000
C       -0.00530000       0.03970000       0.00630000
C       -1.40470000      -0.52880000      -0.22380000
C        1.06150000      -0.59150000      -0.97410000
C        1.69170000      -1.31480000       0.22900000
O        2.08550000      -0.28500000       1.16260000
C        0.72100000      -0.69170000       1.15980000
C        2.36370000      -2.56790000       0.25530000
C        2.92270000      -3.63240000       0.22810000
H        0.99490000       1.93170000       0.34060000
H       -0.32810000       2.01380000      -0.83880000
H       -0.69270000       1.90450000       0.88860000
H       -1.82140000      -0.16410000      -1.16880000
H       -1.39340000      -1.62350000      -0.26160000
H       -2.08620000      -0.22780000       0.58010000
H        0.61470000      -1.27260000      -1.70120000
H        1.73630000       0.10230000      -1.48040000
H        0.30930000      -1.06610000       2.09200000
H        3.41990000      -4.57070000       0.21670000
