19
Properties=species:S:1:pos:R:3 gdb_72707=T pbc="F F F"
C       -0.02670000       1.49620000      -0.08990000
C       -0.08410000      -0.03220000      -0.05390000
C       -1.35270000      -0.49560000       0.76920000
C       -0.37970000      -0.47250000       2.05300000
C        0.71030000      -0.77000000       0.99470000
O        1.97670000      -0.31240000       0.32410000
C        1.13850000      -0.62950000      -0.89460000
C        0.98150000      -2.13520000      -0.76830000
C        0.69330000      -2.24230000       0.52720000
H        0.99680000       1.85730000      -0.19840000
H       -0.61530000       1.84800000      -0.94660000
H       -0.46000000       1.96050000       0.80130000
H       -2.20100000       0.19270000       0.78290000
H       -1.69550000      -1.50930000       0.55940000
H       -0.33530000       0.52030000       2.50000000
H       -0.54370000      -1.22230000       2.83140000
H        1.52940000      -0.17010000      -1.80350000
H        1.09900000      -2.87400000      -1.54680000
H        0.48640000      -3.10240000       1.14870000
