19
Properties=species:S:1:pos:R:3 gdb_40137=T pbc="F F F"
C       -0.10100000       1.54250000      -0.12010000
O        1.15870000       0.88620000      -0.01340000
C       -0.03420000       0.07330000       0.01110000
C       -0.30820000      -0.56250000       1.36260000
C       -1.73910000      -0.99580000       1.56830000
C       -2.46760000      -1.76310000       0.76030000
C       -2.07690000      -2.40210000      -0.54620000
C       -1.00640000      -1.79720000      -1.41270000
C       -0.19240000      -0.76210000      -1.20600000
H       -0.39820000       2.14180000       0.74080000
H       -0.31710000       1.98840000      -1.09030000
H        0.36610000      -1.42240000       1.47320000
H       -0.01840000       0.15420000       2.13570000
H       -2.20610000      -0.65110000       2.48770000
H       -3.47920000      -2.00690000       1.07970000
H       -1.81370000      -3.45710000      -0.35410000
H       -2.98090000      -2.47870000      -1.16830000
H       -0.92810000      -2.28590000      -2.38270000
H        0.48070000      -0.46660000      -2.00770000
