21
Properties=species:S:1:pos:R:3 gdb_92028=T pbc="F F F"
O       -0.12510000       1.43380000       0.10600000
C       -0.00360000       0.01500000       0.02250000
C        0.82200000      -0.53810000       1.19920000
C        0.85280000      -2.06240000       1.23860000
C        0.08640000      -2.82930000       2.29080000
C       -0.42530000      -2.78800000       0.87280000
C       -1.61900000      -1.97630000       0.43560000
C       -2.18030000      -0.81820000       1.22570000
C       -1.40420000      -0.55250000      -0.03930000
H        0.76360000       1.80470000       0.09650000
H        0.50690000      -0.25950000      -0.91720000
H        1.84400000      -0.14890000       1.11980000
H        0.41270000      -0.11910000       2.12490000
H        1.77690000      -2.51510000       0.89310000
H        0.50470000      -3.76070000       2.65740000
H       -0.44770000      -2.25800000       3.04340000
H       -0.30290000      -3.70440000       0.30350000
H       -2.35530000      -2.55330000      -0.11520000
H       -3.25440000      -0.67120000       1.20270000
H       -1.72950000      -0.55610000       2.17540000
H       -1.96860000      -0.21740000      -0.90380000
