20
Properties=species:S:1:pos:R:3 gdb_82138=T pbc="F F F"
C       -0.19400000       1.67010000       0.11550000
C       -0.03330000       0.15730000       0.06310000
C        0.33830000      -0.51050000      -1.26840000
C        1.72760000      -0.11070000      -1.70360000
C        1.55620000      -1.09380000      -0.57540000
N        1.18680000      -0.47280000       0.68990000
C        2.16380000       0.30740000       1.42100000
C        1.72200000       0.50530000       2.86290000
O        1.89920000       1.50860000       3.50350000
H        0.62210000       2.19720000      -0.38600000
H       -1.12860000       1.95160000      -0.38040000
H       -0.24500000       2.03060000       1.14840000
H       -0.92470000      -0.31000000       0.49860000
H       -0.36080000      -1.00220000      -1.93130000
H        2.04610000      -0.54540000      -2.64620000
H        2.11210000       0.88900000      -1.52450000
H        1.96010000      -2.10060000      -0.59720000
H        3.08970000      -0.28600000       1.46160000
H        2.42830000       1.28710000       0.99560000
H        1.20710000      -0.38590000       3.28830000
