19
Properties=species:S:1:pos:R:3 gdb_92210=T pbc="F F F"
O        0.14940000       1.35930000      -0.26610000
C        0.07120000      -0.03180000      -0.03470000
C        0.73210000      -0.49980000       1.29770000
C       -0.39250000      -0.97660000       2.22710000
C       -1.28420000       0.12550000       2.89500000
C       -2.39920000      -0.15430000       1.86780000
O       -2.21870000       0.58350000       0.63200000
C       -1.40900000      -0.48600000       0.05570000
C       -1.60110000      -1.36010000       1.31060000
H       -0.64720000       1.73160000       0.14020000
H        0.56290000      -0.51770000      -0.88450000
H        1.41370000      -1.33350000       1.09410000
H        1.32940000       0.31080000       1.72430000
H       -0.06020000      -1.74340000       2.92850000
H       -1.58530000      -0.14920000       3.91030000
H       -0.89850000       1.14870000       2.90530000
H       -3.44350000      -0.15210000       2.18530000
H       -1.83380000      -0.81380000      -0.89690000
H       -1.96060000      -2.38330000       1.23150000
