21
Properties=species:S:1:pos:R:3 gdb_64337=T pbc="F F F"
C        0.06920000       1.48400000       0.10210000
C       -0.08380000      -0.02690000      -0.04740000
C       -1.56180000      -0.42880000      -0.10880000
C        0.70500000      -0.54550000      -1.26410000
N        0.88650000      -1.99070000      -1.28100000
C        1.52410000      -2.43590000      -0.04430000
C        0.92890000      -1.86860000       1.23030000
N        0.95530000      -2.52830000       2.31090000
O        0.47100000      -0.58370000       1.18190000
H        1.12450000       1.75460000       0.19720000
H       -0.34570000       1.99970000      -0.76950000
H       -0.45660000       1.83550000       0.99410000
H       -2.05760000       0.04480000      -0.96210000
H       -1.67880000      -1.51300000      -0.20330000
H       -2.07290000      -0.11800000       0.80600000
H        0.20080000      -0.22970000      -2.18340000
H        1.70080000      -0.08330000      -1.26230000
H       -0.00740000      -2.45690000      -1.39770000
H        1.51220000      -3.52430000       0.02370000
H        2.57840000      -2.12520000      -0.07820000
H        0.55690000      -1.96890000       3.06930000
