16
Properties=species:S:1:pos:R:3 gdb_13920=T pbc="F F F"
O       -0.09460000       0.08300000      -0.38620000
C       -0.09450000       1.23980000      -0.07860000
C       -1.15960000       2.22010000       0.43950000
C       -0.05500000       3.32360000       0.46630000
C        1.00180000       2.31310000      -0.05810000
C        2.35520000       2.03690000       0.63660000
O        3.09420000       2.27770000      -0.57370000
C        1.88580000       2.55320000      -1.30380000
H       -1.98580000       2.38360000      -0.25840000
H       -1.58320000       1.94000000       1.40840000
H       -0.23920000       4.16290000      -0.20790000
H        0.16420000       3.71860000       1.46080000
H        2.61390000       2.74810000       1.43180000
H        2.48530000       1.01090000       1.00180000
H        1.72900000       1.84290000      -2.12460000
H        1.85810000       3.57960000      -1.69250000
