20
Properties=species:S:1:pos:R:3 gdb_119200=T pbc="F F F"
C        0.01210000       1.57990000      -0.11280000
C       -0.23020000       0.08160000      -0.26230000
N        0.89880000      -0.55380000      -0.93980000
C        0.78060000      -1.96480000      -1.14070000
C       -0.24590000      -2.55960000      -2.11770000
C        1.20620000      -2.54030000      -2.49320000
N        1.62630000      -1.58530000      -3.48210000
C        1.09290000      -2.76580000       0.02350000
N        1.32720000      -3.41810000       0.94990000
H        0.93430000       1.76790000       0.44390000
H        0.10320000       2.06440000      -1.09200000
H       -0.81940000       2.05440000       0.41620000
H       -0.33070000      -0.37870000       0.72800000
H       -1.18750000      -0.09380000      -0.78590000
H        1.08300000      -0.12540000      -1.84310000
H       -0.70860000      -3.51120000      -1.88420000
H       -0.88900000      -1.83250000      -2.60110000
H        1.72830000      -3.49480000      -2.43900000
H        2.63850000      -1.53980000      -3.53610000
H        1.28040000      -1.84290000      -4.40040000
