19
Properties=species:S:1:pos:R:3 gdb_12353=T pbc="F F F"
C       -0.04860000       1.54650000      -0.04360000
C        0.05610000       0.02060000      -0.00570000
C        0.69710000      -0.56270000      -1.27220000
N        0.95510000      -1.99620000      -1.18950000
C        0.98630000      -2.52280000      -0.04050000
O        0.85140000      -1.95270000       1.18130000
C        0.81260000      -0.50700000       1.22380000
C        2.23610000       0.01770000       1.40600000
H        0.93140000       2.01590000      -0.17660000
H       -0.68230000       1.86590000      -0.87700000
H       -0.48890000       1.94260000       0.87820000
H       -0.95870000      -0.39290000       0.06580000
H        0.04630000      -0.38520000      -2.13640000
H        1.64030000      -0.04580000      -1.50140000
H        1.13230000      -3.59600000       0.07310000
H        0.23500000      -0.28330000       2.12720000
H        2.85290000      -0.17040000       0.52240000
H        2.23200000       1.09340000       1.60260000
H        2.70360000      -0.48280000       2.25800000
