13
Properties=species:S:1:pos:R:3 gdb_10466=T pbc="F F F"
O        0.10320000       0.00770000       0.13270000
C        0.09990000       1.19190000       0.24360000
O        1.07930000       1.96470000      -0.30930000
C        0.98680000       3.35620000      -0.09150000
C        1.40470000       3.90160000       1.26260000
C        2.31150000       4.05650000       0.07530000
C       -0.07180000       4.01180000      -0.82320000
N       -0.92630000       4.53600000      -1.39960000
H       -0.66050000       1.78300000       0.78380000
H        0.87760000       4.77010000       1.63860000
H        1.66500000       3.15660000       2.00560000
H        3.17740000       3.40890000       0.00670000
H        2.42030000       5.03390000      -0.37770000
