19
Properties=species:S:1:pos:R:3 gdb_122664=T pbc="F F F"
O       -1.48070000       0.87470000       1.04570000
C       -0.55480000       0.34350000       0.12670000
C       -1.01300000      -0.95320000      -0.53860000
O       -2.01070000      -0.76150000      -1.54250000
C       -3.33850000      -0.69600000      -1.11490000
O       -3.70490000       0.60180000      -0.62530000
C       -4.56180000       1.26580000      -1.55550000
C       -4.90910000       0.21200000      -2.56590000
C       -4.24320000      -0.90390000      -2.29990000
H       -2.29440000       1.07000000       0.55710000
H       -0.29100000       1.06510000      -0.66410000
H        0.36060000       0.12800000       0.69190000
H       -0.16550000      -1.41810000      -1.05460000
H       -1.37940000      -1.64930000       0.23050000
H       -3.49060000      -1.40180000      -0.28420000
H       -5.43730000       1.64400000      -1.01160000
H       -4.05370000       2.12870000      -2.01110000
H       -5.59640000       0.38510000      -3.38400000
H       -4.25890000      -1.83410000      -2.85040000
