14
Properties=species:S:1:pos:R:3 gdb_19320=T pbc="F F F"
C        0.04330000      -1.19560000      -0.02570000
C        0.03200000       0.00890000      -0.02260000
C       -0.00790000       1.42470000       0.01840000
C        0.23810000       2.33800000      -1.16770000
C        1.16120000       2.43540000       0.00740000
C        0.49160000       3.17320000       1.20570000
O       -0.82890000       3.59450000       0.82680000
C       -0.62240000       2.23700000       1.22040000
H        0.05770000      -2.25700000      -0.03720000
H        0.64980000       1.83160000      -2.03350000
H       -0.46480000       3.13470000      -1.37480000
H        2.21460000       2.19590000      -0.03740000
H        0.98780000       3.71950000       1.99750000
H       -1.23110000       1.82770000       2.01690000
