19
Properties=species:S:1:pos:R:3 gdb_19357=T pbc="F F F"
C        0.10610000       1.53130000      -0.15100000
C       -0.07510000       0.02530000       0.08610000
C        0.70250000      -0.47760000       1.26980000
C        2.14400000      -0.91610000       1.22800000
C        1.08210000      -1.87330000       1.70560000
N        0.52470000      -1.68430000       3.10620000
C        1.20570000      -0.56500000       3.78650000
C        0.22320000      -0.25960000       2.72580000
H        1.15530000       1.77330000      -0.34840000
H       -0.48770000       1.87120000      -1.00510000
H       -0.20770000       2.10990000       0.72450000
H       -1.14110000      -0.19740000       0.23030000
H        0.23540000      -0.52960000      -0.80760000
H        2.49060000      -1.15430000       0.22570000
H        2.92370000      -0.50110000       1.85700000
H        0.90700000      -2.83590000       1.24110000
H        0.86280000      -0.45380000       4.81180000
H        2.26890000      -0.39620000       3.66110000
H       -0.75240000       0.16740000       2.94210000
