16
Properties=species:S:1:pos:R:3 gdb_28370=T pbc="F F F"
C       -0.01600000       1.51270000       0.03990000
C       -0.00850000       0.01650000      -0.06730000
N       -0.03710000      -0.57910000      -1.21690000
C       -0.03650000      -1.95150000      -1.22760000
C       -0.01380000      -2.73360000      -0.10550000
N       -0.07370000      -4.11100000      -0.05950000
C        0.04240000      -2.08070000       1.19930000
O        0.10560000      -2.66500000       2.27250000
N        0.03070000      -0.69380000       1.10900000
H        0.87690000       1.88080000       0.55900000
H       -0.04040000       1.93520000      -0.96400000
H       -0.89090000       1.86860000       0.59650000
H       -0.06060000      -2.40840000      -2.21380000
H        0.28750000      -4.61310000      -0.85510000
H        0.20740000      -4.48180000       0.83860000
H        0.07060000      -0.21020000       1.99690000
