17
Properties=species:S:1:pos:R:3 gdb_33886=T pbc="F F F"
N        0.09580000      -1.08610000      -0.04080000
C        0.06090000       0.07040000       0.00420000
C       -0.00980000       1.49730000       0.04900000
N        0.33150000       2.29920000      -1.16100000
C        1.19370000       2.38610000       0.02930000
C        0.77570000       3.43860000       1.07490000
C       -0.71150000       3.71690000       0.71850000
C       -0.88440000       2.22250000       1.10260000
C        0.20820000       2.49570000       2.19510000
H        0.76870000       1.68310000      -1.84510000
H        2.20300000       1.99320000      -0.00270000
H        1.48440000       4.23760000       1.28820000
H       -1.18170000       4.36630000       1.45850000
H       -0.95850000       4.02910000      -0.29330000
H       -1.85210000       1.78000000       1.33180000
H        0.82610000       1.65390000       2.51990000
H       -0.17910000       3.04080000       3.05850000
