11
Properties=species:S:1:pos:R:3 gdb_21360=T pbc="F F F"
N       -0.03440000       1.36750000       0.01030000
C        1.27090000       1.81340000      -0.00010000
C        2.16300000       0.75200000      -0.01480000
C        1.34270000      -0.40150000      -0.01310000
C        0.02250000      -0.00130000       0.00210000
N       -0.77640000      -1.09110000       0.00400000
N       -0.06340000      -2.13330000      -0.00840000
O        1.37160000      -1.72840000      -0.02080000
H       -0.85590000       1.94530000       0.02150000
H        1.47830000       2.87230000       0.00360000
H        3.23730000       0.82600000      -0.02510000
