16
Properties=species:S:1:pos:R:3 gdb_50284=T pbc="F F F"
O       -0.80160000       1.05010000      -0.69340000
C        0.12530000       0.87540000       0.05680000
C        1.33860000       1.76690000       0.13490000
C        1.40800000       3.02630000      -0.75370000
N        1.53380000       3.95000000       0.43620000
C        0.31910000       3.77430000       1.21920000
C        1.35870000       2.71650000       1.34960000
C        2.17080000       2.55460000       2.57940000
O        2.24850000       3.38740000       3.44760000
H        0.12150000       0.03610000       0.78980000
H        2.24640000       1.15510000       0.09760000
H        2.30420000       3.08940000      -1.37060000
H        0.51960000       3.21470000      -1.36120000
H        0.25400000       4.45720000       2.05970000
H       -0.61550000       3.53610000       0.71580000
H        2.72030000       1.58830000       2.64830000
