16
Properties=species:S:1:pos:R:3 gdb_15535=T pbc="F F F"
C       -0.03870000       1.50920000      -0.04550000
C       -0.01420000       0.01620000      -0.05730000
N       -0.03670000      -0.68680000      -1.12050000
C       -0.00180000      -2.10530000      -0.74950000
C        0.05220000      -2.16080000       0.80200000
N        0.03710000      -0.73000000       1.14630000
C        0.06720000      -0.26650000       2.43550000
O        0.05500000       0.89420000       2.78060000
H        0.84470000       1.90930000       0.45800000
H       -0.07620000       1.85700000      -1.07810000
H       -0.90240000       1.88010000       0.51150000
H       -0.88790000      -2.61060000      -1.14800000
H        0.87000000      -2.58350000      -1.20810000
H       -0.81040000      -2.67410000       1.23750000
H        0.96150000      -2.64040000       1.17660000
H        0.10290000      -1.10470000       3.15910000
