19
Properties=species:S:1:pos:R:3 gdb_80926=T pbc="F F F"
C       -0.13530000       1.60060000      -0.00780000
C        0.01500000       0.08710000       0.00910000
C        1.18110000      -0.63100000      -0.75130000
C        2.16760000      -0.16850000       0.37060000
C        0.86850000      -0.64060000       1.11700000
O        0.62300000      -0.73930000       2.46870000
C        0.88490000      -1.83240000       0.15930000
C        0.18560000      -3.10090000       0.05590000
O        1.62030000      -3.01820000       0.28160000
H        0.80710000       2.13790000       0.12390000
H       -0.57080000       1.93140000      -0.95670000
H       -0.81650000       1.92280000       0.78840000
H       -0.96020000      -0.38610000      -0.15290000
H        1.36270000      -0.63690000      -1.82280000
H        3.05360000      -0.78820000       0.51720000
H        2.41140000       0.89350000       0.40820000
H        0.73970000       0.12810000       2.87050000
H       -0.38620000      -3.47950000       0.90130000
H       -0.10160000      -3.49550000      -0.91750000
