14
Properties=species:S:1:pos:R:3 gdb_23337=T pbc="F F F"
O        0.08070000       1.24860000      -0.08970000
N        0.12650000      -0.15380000       0.02470000
C       -1.02630000      -0.64700000       0.08500000
C       -2.52520000      -0.38320000      -0.01380000
O       -2.56560000      -1.50640000      -0.98420000
C       -1.68580000      -2.01130000       0.12050000
C       -2.73490000      -1.45400000       1.12250000
C       -2.36770000      -1.15140000       2.54980000
O       -1.30070000      -1.41200000       3.04430000
H        1.01640000       1.47740000      -0.11030000
H       -3.09370000       0.51560000      -0.23680000
H       -1.26640000      -3.00950000       0.03210000
H       -3.71850000      -1.92390000       1.02950000
H       -3.17250000      -0.65530000       3.13800000
