20
Properties=species:S:1:pos:R:3 gdb_73027=T pbc="F F F"
C       -0.44090000       1.56130000      -0.17110000
C       -0.06290000       0.11620000      -0.02950000
C       -0.79390000      -1.05290000      -0.69150000
O       -0.60940000      -1.89850000       0.47610000
C        0.03950000      -0.82940000       1.16650000
C        1.28510000      -0.37760000       0.44260000
N        2.16260000      -1.19250000      -0.36400000
C        3.34180000      -1.73620000       0.31710000
C        2.23050000      -2.63250000      -0.08170000
H       -0.15610000       1.94920000      -1.15670000
H       -1.52060000       1.70840000      -0.05270000
H        0.06440000       2.17630000       0.58030000
H       -1.86090000      -0.86320000      -0.85550000
H       -0.34220000      -1.47790000      -1.59440000
H       -0.16950000      -0.72060000       2.22650000
H        1.82010000       0.40280000       0.98230000
H        4.26560000      -1.70130000      -0.25380000
H        3.45400000      -1.52910000       1.38020000
H        1.59040000      -3.02540000       0.70000000
H        2.32420000      -3.26630000      -0.95900000
