15
Properties=species:S:1:pos:R:3 gdb_97869=T pbc="F F F"
O        0.10880000       1.07000000       0.92670000
C       -0.03380000       0.19430000      -0.18450000
C       -1.37080000      -0.38590000      -0.18180000
C       -2.46730000      -0.87810000      -0.19650000
C       -3.80720000      -1.46760000      -0.20600000
C       -3.80870000      -2.92160000      -0.05590000
C       -3.82010000      -4.12430000       0.06470000
C       -3.83190000      -5.47840000       0.20120000
C       -3.84380000      -6.67960000       0.32190000
H        1.00480000       1.42110000       0.90160000
H        0.12450000       0.72730000      -1.13640000
H        0.70660000      -0.62140000      -0.14990000
H       -4.40510000      -1.02000000       0.60080000
H       -4.32490000      -1.20010000      -1.13820000
H       -3.85330000      -7.73580000       0.42880000
