18
Properties=species:S:1:pos:R:3 gdb_69928=T pbc="F F F"
C       -0.01200000       1.54630000       0.03930000
C        0.01960000       0.04600000       0.00970000
C       -0.87120000      -0.82410000       0.83980000
C        0.61580000      -0.96570000       1.02730000
C        1.24760000      -1.75710000      -0.11270000
O        0.66250000      -3.04110000      -0.45230000
C       -0.16030000      -2.77500000      -1.50410000
N       -0.25510000      -1.59970000      -1.97920000
C        0.63570000      -0.78180000      -1.15030000
H        0.95360000       1.97450000      -0.25340000
H       -0.77030000       1.93660000      -0.64980000
H       -0.25380000       1.91690000       1.04080000
H       -1.37070000      -0.30750000       1.65380000
H       -1.46340000      -1.62140000       0.40180000
H        1.09170000      -0.77450000       1.98200000
H        2.33020000      -1.87440000      -0.06470000
H       -0.69650000      -3.64360000      -1.87280000
H        1.32930000      -0.20270000      -1.76420000
