19
Properties=species:S:1:pos:R:3 gdb_90514=T pbc="F F F"
O        0.12960000       1.39740000      -0.09560000
C        0.06580000       0.00630000       0.15440000
C        0.06190000      -0.51970000       1.63320000
C       -1.27520000      -1.21000000       1.34510000
C       -2.32880000      -0.22410000       0.94180000
C       -2.51000000       1.17670000       1.52340000
C       -3.17870000       1.15440000       2.82060000
C       -3.73200000       1.10950000       3.88720000
C       -1.30080000      -0.62180000      -0.08430000
H        1.03570000       1.68890000       0.04900000
H        0.83160000      -0.52260000      -0.42810000
H        0.88130000      -1.21400000       1.83170000
H        0.04990000       0.24390000       2.41640000
H       -1.52690000      -2.21700000       1.65360000
H       -3.28200000      -0.71390000       0.75290000
H       -1.54710000       1.68740000       1.59890000
H       -3.09990000       1.77520000       0.81720000
H       -4.21920000       1.08240000       4.83000000
H       -1.59520000      -1.09210000      -1.01520000
