20
Properties=species:S:1:pos:R:3 gdb_89099=T pbc="F F F"
O       -0.11810000       1.47500000       0.34910000
C       -0.02450000       0.09160000       0.16330000
C       -0.68570000      -0.83740000       1.15130000
C       -1.28430000      -0.62480000      -0.22890000
C       -2.58750000       0.12920000      -0.38930000
C       -3.81310000      -0.74690000      -0.10650000
C       -5.12970000       0.03350000      -0.29400000
C       -6.31270000      -0.77980000      -0.02180000
N       -7.23630000      -1.43870000       0.19800000
H        0.44650000       1.71350000       1.09150000
H        0.90410000      -0.24080000      -0.30080000
H       -0.21280000      -1.78430000       1.38750000
H       -1.19960000      -0.36530000       1.98320000
H       -1.15070000      -1.44430000      -0.93090000
H       -2.58360000       0.99870000       0.27610000
H       -2.65200000       0.52860000      -1.41070000
H       -3.81780000      -1.61870000      -0.77070000
H       -3.76670000      -1.13590000       0.91630000
H       -5.14900000       0.90730000       0.36800000
H       -5.20050000       0.41720000      -1.31870000
