17
Properties=species:S:1:pos:R:3 gdb_43637=T pbc="F F F"
N       -0.71300000       1.00380000      -0.31530000
C       -0.24500000      -0.15680000      -0.12590000
O       -1.01470000      -1.25400000      -0.42670000
C       -0.29910000      -2.45810000      -0.13680000
C        1.02960000      -1.98410000       0.38630000
C        1.04530000      -0.65240000       0.38980000
C       -1.08000000      -3.32670000       0.83930000
C       -1.88820000      -2.71980000       1.92070000
N       -2.54210000      -3.37510000       0.76980000
H       -0.02490000       1.70570000      -0.05010000
H       -0.17930000      -3.01150000      -1.08100000
H        1.81300000      -2.65930000       0.70440000
H        1.84050000       0.00540000       0.71180000
H       -0.60890000      -4.29390000       1.00800000
H       -1.99840000      -3.23760000       2.86890000
H       -1.92520000      -1.63630000       1.97870000
H       -2.86270000      -2.65060000       0.12950000
