17
Properties=species:S:1:pos:R:3 gdb_88303=T pbc="F F F"
C        0.58780000       1.34150000       0.49660000
C        0.47280000       0.08840000      -0.33740000
C        1.66940000      -0.46950000      -1.06660000
N        1.10620000      -1.13870000       0.09130000
C        1.65040000      -1.42430000       1.31930000
O        1.12070000      -1.16050000       2.37340000
C        2.95820000      -2.24960000       1.25810000
C        4.10680000      -1.42060000       0.90780000
N        4.99740000      -0.74090000       0.62250000
H        1.61030000       1.48750000       0.85590000
H        0.30460000       2.21290000      -0.10180000
H       -0.06940000       1.28740000       1.36820000
H       -0.49850000      -0.07060000      -0.80310000
H        1.53970000      -0.98100000      -2.01680000
H        2.61780000       0.04630000      -0.94340000
H        3.11010000      -2.69140000       2.24530000
H        2.85890000      -3.05290000       0.52100000
