21
Properties=species:S:1:pos:R:3 gdb_99890=T pbc="F F F"
C        0.12850000       1.48500000       0.13900000
C       -0.08600000      -0.03230000       0.14250000
C       -1.55380000      -0.52020000      -0.07130000
C       -2.13970000      -0.00890000      -1.40880000
C       -1.53270000      -1.98620000      -0.09100000
C       -1.49120000      -3.18660000      -0.14450000
C       -2.43580000      -0.00130000       1.06950000
C       -3.45690000      -0.79750000       1.75830000
O       -2.19510000      -0.51310000       2.37490000
H        1.18830000       1.70640000       0.29800000
H       -0.16010000       1.94240000      -0.81210000
H       -0.42860000       1.98300000       0.93820000
H        0.53000000      -0.48990000      -0.63950000
H        0.25690000      -0.44880000       1.09480000
H       -1.50010000      -0.30610000      -2.24420000
H       -3.13570000      -0.42710000      -1.57690000
H       -2.22290000       1.08170000      -1.40880000
H       -1.45420000      -4.24740000      -0.18030000
H       -2.58330000       1.07930000       1.03800000
H       -4.31530000      -0.29700000       2.20440000
H       -3.60510000      -1.83610000       1.47350000
