19
Properties=species:S:1:pos:R:3 gdb_36730=T pbc="F F F"
C       -0.14710000      -1.20580000      -0.03150000
C       -0.09400000      -0.00500000      -0.02770000
C       -0.00030000       1.44920000      -0.02030000
C        1.45440000       1.95110000       0.05690000
C        1.52740000       3.46650000       0.03400000
O        0.82630000       4.02230000       1.14070000
C        1.59060000       5.11280000       1.64880000
C        2.78780000       5.20250000       0.68630000
O        2.86310000       3.89110000       0.15010000
H       -0.20710000      -2.26570000      -0.03500000
H       -0.48050000       1.84960000      -0.92330000
H       -0.56040000       1.85540000       0.82940000
H        1.92760000       1.59880000       0.97790000
H        2.03270000       1.56160000      -0.78660000
H        1.08590000       3.86920000      -0.89920000
H        0.98790000       6.02790000       1.65700000
H        1.90410000       4.88760000       2.67520000
H        2.60490000       5.94080000      -0.10910000
H        3.73560000       5.43410000       1.17620000
