16
Properties=species:S:1:pos:R:3 gdb_100237=T pbc="F F F"
O        0.09080000       1.33320000      -0.28630000
C        0.05870000      -0.05240000      -0.00050000
C       -1.40480000      -0.55750000      -0.00580000
O       -2.02360000      -0.16420000      -1.20640000
C       -1.46100000      -2.09620000       0.08890000
C       -2.81340000      -2.63030000       0.14920000
C       -3.92710000      -3.07410000       0.20900000
C       -2.08720000       0.07560000       1.15670000
N       -2.54620000       0.63930000       2.05550000
H       -0.20690000       1.81000000       0.49830000
H        0.59030000      -0.54920000      -0.81730000
H        0.55270000      -0.29490000       0.94890000
H       -1.70680000       0.73400000      -1.38440000
H       -0.94190000      -2.48220000      -0.79600000
H       -0.89080000      -2.41600000       0.96960000
H       -4.91520000      -3.45990000       0.26110000
