20
Properties=species:S:1:pos:R:3 gdb_61621=T pbc="F F F"
C        0.37520000       1.41460000      -0.33920000
C       -0.02300000       0.02270000       0.08750000
N        1.05160000      -0.97580000       0.22720000
C        0.27270000      -0.57300000       1.42130000
C        1.00360000       0.13450000       2.54360000
C        2.07920000      -0.77880000       3.19820000
N        3.27410000      -1.02450000       2.38280000
C        2.48150000      -0.22260000       4.49880000
N        2.77790000       0.24640000       5.51230000
H        1.34100000       1.70170000       0.08130000
H        0.46240000       1.46480000      -1.42940000
H       -0.37510000       2.14870000      -0.02680000
H       -0.94540000      -0.33160000      -0.37110000
H        0.74690000      -1.88590000      -0.10590000
H       -0.45740000      -1.29960000       1.77740000
H        1.49840000       1.04400000       2.19170000
H        0.26890000       0.43970000       3.29780000
H        1.61450000      -1.75320000       3.40620000
H        2.95830000      -1.20570000       1.43140000
H        3.82470000      -0.17090000       2.33750000
