23
Properties=species:S:1:pos:R:3 gdb_36947=T pbc="F F F"
C        0.01410000       1.53970000      -0.20570000
C       -0.07240000       0.02690000      -0.04330000
C        0.24760000      -0.62140000       1.33550000
C       -0.91570000      -1.61960000       1.09320000
C       -1.47470000      -0.64180000       0.02400000
C        1.43510000       2.07640000      -0.18460000
C        1.64270000       3.60650000      -0.11250000
C        2.44270000       3.29340000       1.16700000
O        2.09160000       1.89700000       1.09840000
H       -0.44370000       1.83550000      -1.16130000
H       -0.56240000       2.03170000       0.58950000
H        0.52600000      -0.45880000      -0.82480000
H        1.25230000      -1.01930000       1.49020000
H        0.02690000       0.07160000       2.15230000
H       -0.56420000      -2.55260000       0.64230000
H       -1.56040000      -1.86800000       1.93980000
H       -2.21540000       0.04100000       0.45450000
H       -1.88700000      -1.06170000      -0.89760000
H        2.02630000       1.59690000      -0.97980000
H        2.19640000       4.06190000      -0.93470000
H        0.72100000       4.16810000       0.05590000
H        3.52690000       3.44600000       1.08330000
H        2.09260000       3.76070000       2.09490000
