25
Properties=species:S:1:pos:R:3 gdb_122018=T pbc="F F F"
C        0.01590000       1.48760000       0.01720000
C        0.03220000      -0.03180000       0.01320000
O        0.70150000      -0.47990000       1.17270000
C        0.77800000      -1.88570000       1.26960000
C        1.48090000      -2.26500000       2.57470000
C        0.69640000      -1.73890000       3.78530000
C        1.70620000      -3.78480000       2.61350000
C        2.56700000      -4.26430000       3.77610000
O        2.77410000      -5.66010000       3.60710000
H        1.03610000       1.88190000       0.02560000
H       -0.49620000       1.86660000      -0.87230000
H       -0.50320000       1.86350000       0.90360000
H       -0.99690000      -0.43000000      -0.01050000
H        0.54120000      -0.41030000      -0.89010000
H       -0.23480000      -2.32730000       1.24260000
H        1.33150000      -2.29640000       0.40780000
H        2.46130000      -1.76820000       2.55630000
H        1.25160000      -1.86680000       4.71910000
H        0.48160000      -0.67540000       3.66040000
H       -0.25890000      -2.26850000       3.88900000
H        0.74180000      -4.30770000       2.65540000
H        2.19660000      -4.11080000       1.68780000
H        3.52480000      -3.71730000       3.77710000
H        2.07090000      -4.05490000       4.73570000
H        3.28480000      -5.98010000       4.35630000
