22
Properties=species:S:1:pos:R:3 gdb_63533=T pbc="F F F"
C       -0.07800000       1.51360000       0.02930000
C       -0.03950000      -0.00290000       0.02550000
C       -1.27060000      -0.66490000      -0.56320000
C        1.30360000      -0.67380000      -0.19380000
C        0.66470000      -0.69520000       1.16540000
C        1.26590000      -0.14660000       2.46620000
N        0.92480000      -1.41720000       3.20730000
C       -0.54130000      -1.54960000       3.12900000
C        0.25280000      -1.92500000       1.94000000
H        0.82480000       1.94070000       0.47680000
H       -0.15920000       1.90540000      -0.99160000
H       -0.93940000       1.88810000       0.59540000
H       -1.40970000      -0.37290000      -1.61090000
H       -1.19800000      -1.75600000      -0.52860000
H       -2.17520000      -0.37520000      -0.01570000
H        1.32800000      -1.60110000      -0.75970000
H        2.17800000      -0.04490000      -0.33640000
H        2.35040000      -0.01480000       2.43500000
H        0.80640000       0.74780000       2.90280000
H       -0.92510000      -2.34820000       3.75690000
H       -1.15500000      -0.65070000       3.10660000
H        0.37000000      -2.95310000       1.61050000
