18
Properties=species:S:1:pos:R:3 gdb_125962=T pbc="F F F"
C       -0.09600000       1.59020000      -0.05680000
C        0.01330000       0.06550000       0.02000000
C        0.79770000      -0.57220000      -1.17520000
C        1.51310000      -1.82400000      -0.60750000
N        1.59180000      -1.47600000       0.80380000
N        2.28460000      -2.00590000       1.81880000
N        1.94100000      -1.32640000       2.88640000
C        1.02330000      -0.37250000       2.54630000
C        0.78850000      -0.46280000       1.19340000
H        0.89600000       2.05250000      -0.06550000
H       -0.62510000       1.89490000      -0.96530000
H       -0.64670000       1.98850000       0.80060000
H       -1.00200000      -0.35360000       0.04660000
H        0.14970000      -0.81390000      -2.02020000
H        1.54750000       0.14420000      -1.52580000
H        0.92670000      -2.74020000      -0.73640000
H        2.50840000      -1.98920000      -1.02420000
H        0.61260000       0.29650000       3.28460000
