14
Properties=species:S:1:pos:R:3 gdb_34164=T pbc="F F F"
C       -0.02500000      -1.12890000       0.05060000
C       -0.05700000       0.07230000       0.03190000
C       -0.07480000       1.50160000      -0.01570000
O       -1.01610000       2.17720000       0.86240000
C       -0.85460000       3.31870000      -0.00580000
C        0.64670000       3.70710000       0.00000000
C        1.23850000       2.34600000      -0.01650000
N        0.95940000       3.04380000      -1.31360000
C       -0.44460000       2.44080000      -1.21360000
H       -0.00190000      -2.19070000       0.07130000
H       -1.64790000       4.05810000       0.06160000
H        1.14890000       4.60570000       0.33350000
H        2.23550000       2.07300000       0.30240000
H       -1.02400000       2.18020000      -2.09530000
