17
Properties=species:S:1:pos:R:3 gdb_71147=T pbc="F F F"
C        0.00960000       1.54480000      -0.00220000
C        0.04330000       0.03580000       0.02470000
C       -1.23370000      -0.78180000       0.39400000
N       -0.44360000      -1.69620000       1.28130000
C        0.84180000      -2.07470000       0.57410000
C        0.70550000      -0.74550000       1.19900000
C        0.95440000      -1.90030000      -0.92050000
O        1.25470000      -2.73140000      -1.74580000
N        0.66650000      -0.56330000      -1.15630000
H        1.01820000       1.95190000      -0.12180000
H       -0.60480000       1.90920000      -0.83300000
H       -0.41720000       1.93720000       0.92520000
H       -1.92820000      -0.22840000       1.03130000
H       -1.77610000      -1.26430000      -0.42620000
H        1.34900000      -2.90460000       1.04760000
H        1.24440000      -0.36230000       2.05780000
H        0.33750000      -0.31730000      -2.08100000
