23
Properties=species:S:1:pos:R:3 gdb_122912=T pbc="F F F"
C        0.02750000       1.43280000       0.03710000
O       -0.01420000       0.02770000      -0.00050000
C        0.64860000      -0.51220000      -1.12290000
C        0.53870000      -2.03070000      -1.06900000
C        1.21760000      -2.70180000      -2.26690000
C        1.23190000      -4.24920000      -2.20020000
C       -0.18090000      -4.86720000      -2.23210000
C        2.05140000      -4.79150000      -3.28370000
C        2.71160000      -5.22440000      -4.19080000
H        1.06120000       1.81180000       0.08480000
H       -0.45860000       1.88150000      -0.84430000
H       -0.50650000       1.75370000       0.93490000
H        0.19920000      -0.12770000      -2.05580000
H        1.70880000      -0.20270000      -1.12900000
H        0.99160000      -2.37960000      -0.13250000
H       -0.52340000      -2.29300000      -1.02180000
H        0.72580000      -2.39710000      -3.19950000
H        2.25520000      -2.35530000      -2.34020000
H        1.70370000      -4.53470000      -1.24870000
H       -0.12290000      -5.95840000      -2.21230000
H       -0.77090000      -4.54160000      -1.37150000
H       -0.70790000      -4.57360000      -3.14530000
H        3.30140000      -5.61340000      -4.98330000
