17
Properties=species:S:1:pos:R:3 gdb_37605=T pbc="F F F"
C        0.01920000       1.65660000      -0.26040000
C        1.42830000       1.06190000       0.06640000
C        0.75590000      -0.17470000       0.78730000
C        1.34650000      -1.00880000      -0.35100000
C        1.20970000      -2.41100000      -0.66710000
C        0.46650000      -3.26890000       0.03880000
O       -1.74340000       0.06980000       0.60730000
C       -0.61680000       0.41610000       0.40410000
C        1.92670000       0.05430000      -0.94710000
H       -0.22460000       2.55100000       0.32380000
H       -0.21950000       1.84740000      -1.30830000
H        2.13740000       1.70810000       0.58240000
H        0.92780000      -0.46870000       1.82380000
H        1.75550000      -2.75760000      -1.54300000
H        0.38550000      -4.31380000      -0.23750000
H       -0.09830000      -2.94650000       0.90780000
H        2.46500000       0.17070000      -1.88140000
