21
Properties=species:S:1:pos:R:3 gdb_60896=T pbc="F F F"
C       -0.02920000       1.57450000       0.25210000
C       -0.00450000       0.04800000       0.06980000
C        0.77910000      -0.61130000       1.19410000
O        1.46970000      -1.58900000       1.06560000
C       -1.40780000      -0.52490000      -0.00380000
C       -2.22630000      -0.95900000       1.18610000
C       -1.91540000      -1.96490000       0.10800000
C       -2.85410000      -1.75390000      -1.08390000
C       -2.35180000      -0.27650000      -1.19510000
H        0.98190000       1.99400000       0.24400000
H       -0.59660000       2.04980000      -0.55280000
H       -0.50450000       1.84660000       1.20070000
H        0.51730000      -0.21030000      -0.86010000
H        0.66320000      -0.12150000       2.19020000
H       -1.68580000      -1.09860000       2.11700000
H       -3.24210000      -0.59180000       1.32060000
H       -1.35080000      -2.86410000       0.32360000
H       -2.58100000      -2.34700000      -1.95910000
H       -3.92070000      -1.89900000      -0.88340000
H       -3.09680000       0.51500000      -1.06310000
H       -1.81290000      -0.09420000      -2.12880000
