14
Properties=species:S:1:pos:R:3 gdb_44557=T pbc="F F F"
O        0.03090000       0.00560000       0.18440000
C       -0.02010000       1.19360000       0.06570000
N       -1.14800000       1.98860000      -0.05080000
C       -0.84450000       3.38620000       0.02400000
C       -0.75320000       4.06710000       1.41870000
O       -0.02520000       3.18050000       2.26060000
C        0.72700000       4.02200000       1.38930000
C        0.71860000       3.35330000      -0.00120000
O        1.09960000       1.99320000      -0.04410000
H       -2.02880000       1.58590000       0.22320000
H       -1.33320000       3.99270000      -0.74190000
H       -1.43080000       4.77090000       1.88750000
H        1.47270000       4.66860000       1.83570000
H        1.21560000       3.91610000      -0.79210000
