19
Properties=species:S:1:pos:R:3 gdb_126802=T pbc="F F F"
C        0.15270000       1.47130000       0.09620000
C        0.03070000      -0.04460000      -0.06380000
N        0.67100000      -0.52980000      -1.27410000
N       -0.01030000      -0.85490000      -2.35680000
C        0.93140000      -1.17530000      -3.25000000
C        2.19290000      -1.01260000      -2.64120000
N        3.45900000      -1.17710000      -3.16980000
C        3.62450000      -2.05600000      -4.31360000
N        2.00390000      -0.60310000      -1.38240000
H        1.20380000       1.76850000       0.12890000
H       -0.33020000       1.98820000      -0.73770000
H       -0.32820000       1.78860000       1.02640000
H        0.49290000      -0.56050000       0.78270000
H       -1.01340000      -0.35420000      -0.13380000
H        0.66970000      -1.50080000      -4.24290000
H        4.16130000      -1.28250000      -2.45210000
H        4.68270000      -2.09350000      -4.58170000
H        3.26960000      -3.08400000      -4.13900000
H        3.08230000      -1.65350000      -5.17580000
