21
Properties=species:S:1:pos:R:3 gdb_117862=T pbc="F F F"
C       -0.04530000       1.60440000      -0.07080000
C       -0.00070000       0.07570000       0.01330000
C       -1.40030000      -0.54570000       0.07900000
C       -1.41300000      -2.09620000       0.06960000
C       -0.74480000      -2.71440000       1.31670000
C       -2.77930000      -2.58900000      -0.07390000
C       -3.91790000      -2.98630000      -0.18460000
C       -5.19750000      -3.43380000      -0.30510000
C       -6.33300000      -3.83090000      -0.41340000
H        0.96200000       2.02970000      -0.11720000
H       -0.58980000       1.93660000      -0.96140000
H       -0.54840000       2.03380000       0.80260000
H        0.53280000      -0.32410000      -0.85970000
H        0.58520000      -0.21920000       0.89150000
H       -1.92380000      -0.19580000       0.97790000
H       -1.99010000      -0.19350000      -0.77530000
H       -0.84740000      -2.42660000      -0.81460000
H       -1.24950000      -2.38020000       2.22830000
H       -0.79650000      -3.80550000       1.28170000
H        0.30740000      -2.42460000       1.37650000
H       -7.33120000      -4.17990000      -0.50630000
