17
Properties=species:S:1:pos:R:3 gdb_42907=T pbc="F F F"
O       -0.10230000      -0.02880000       0.25810000
C       -0.06640000       1.16210000       0.19840000
C       -1.12960000       2.29760000       0.10950000
C        0.08790000       3.20020000      -0.12920000
C        1.04360000       3.09110000       0.97340000
N        1.07560000       2.01890000      -0.07350000
N       -2.08720000       2.26350000      -0.97600000
C       -1.81690000       1.44960000      -2.16340000
C       -2.85690000       1.03590000      -1.18130000
H       -1.67520000       2.49730000       1.03770000
H        0.16100000       3.92220000      -0.93200000
H        1.94140000       3.69960000       0.95420000
H        0.69480000       2.83130000       1.97040000
H       -2.10220000       1.91180000      -3.10360000
H       -0.90920000       0.85300000      -2.20380000
H       -2.62160000       0.17800000      -0.55750000
H       -3.91090000       1.18400000      -1.39870000
