21
Properties=species:S:1:pos:R:3 gdb_37821=T pbc="F F F"
C       -0.10570000       1.58810000       0.08210000
C        1.40480000       1.29410000       0.02060000
C        1.26520000      -0.01530000       0.89360000
C        2.03720000      -0.86620000      -0.13220000
C        1.20000000       0.10780000      -0.99100000
C        0.65000000      -0.06960000      -2.39980000
C       -0.81070000      -0.62520000      -2.17550000
C       -0.98740000      -0.92490000      -0.64460000
C       -0.01460000       0.04840000      -0.01780000
H       -0.49620000       2.00240000       1.01770000
H       -0.53450000       2.11980000      -0.77460000
H        2.24620000       1.99000000       0.05930000
H        1.29680000      -0.05220000       1.98460000
H        3.12510000      -0.74240000      -0.15960000
H        1.77690000      -1.92910000      -0.18660000
H        0.62200000       0.86580000      -2.96670000
H        1.26320000      -0.76860000      -2.97620000
H       -1.53810000       0.13310000      -2.48250000
H       -1.01280000      -1.51180000      -2.78350000
H       -2.02630000      -0.80840000      -0.32230000
H       -0.69080000      -1.95690000      -0.42430000
