15
Properties=species:S:1:pos:R:3 gdb_10146=T pbc="F F F"
O       -0.08170000       1.45720000       0.08270000
C        0.02870000       0.05050000      -0.03910000
C       -1.38920000      -0.50850000       0.00320000
C       -1.43110000      -2.05970000      -0.02880000
C       -2.79640000      -2.56670000       0.11570000
C       -3.92330000      -2.95630000       0.24950000
C       -0.80750000      -2.58500000      -1.25700000
N       -0.29700000      -2.97730000      -2.21600000
H        0.78960000       1.84170000      -0.04950000
H        0.51770000      -0.23820000      -0.98100000
H        0.62280000      -0.37940000       0.78550000
H       -1.88000000      -0.18030000       0.92370000
H       -1.96720000      -0.11200000      -0.83570000
H       -0.82950000      -2.43530000       0.81160000
H       -4.91830000      -3.31060000       0.36340000
