27
Properties=species:S:1:pos:R:3 gdb_100680=T pbc="F F F"
C        0.06520000       1.65940000       0.06780000
C        0.03810000       0.12710000      -0.00370000
C        0.67910000      -0.56620000       1.21490000
C       -0.03560000      -0.18840000       2.52320000
C        0.82400000      -2.11230000       1.05960000
C       -0.53280000      -2.83340000       1.07770000
C        1.60170000      -2.47300000      -0.21690000
O        1.62460000      -2.46620000       2.20600000
C        1.78630000      -3.82900000       2.51870000
H        1.08780000       2.03010000       0.20270000
H       -0.32660000       2.09660000      -0.85610000
H       -0.53890000       2.04360000       0.89440000
H       -1.00300000      -0.20470000      -0.11330000
H        0.55620000      -0.17930000      -0.91800000
H        1.71470000      -0.20650000       1.29270000
H       -1.11740000      -0.35230000       2.45580000
H        0.35320000      -0.77990000       3.35350000
H        0.11800000       0.86750000       2.76150000
H       -1.18460000      -2.43940000       0.29320000
H       -0.41800000      -3.90560000       0.89310000
H       -1.03780000      -2.70430000       2.03820000
H        2.52910000      -1.89570000      -0.27910000
H        1.86200000      -3.53540000      -0.22520000
H        1.01200000      -2.28380000      -1.11740000
H        2.20480000      -4.41650000       1.68890000
H        2.49320000      -3.87090000       3.35210000
H        0.84970000      -4.30650000       2.83890000
