18
Properties=species:S:1:pos:R:3 gdb_47037=T pbc="F F F"
N       -0.35830000       1.18530000       0.33630000
C       -0.15270000       0.03440000      -0.13600000
O        1.00150000      -0.66900000       0.04760000
C        1.30300000      -1.67210000      -0.93960000
C        0.20520000      -2.71750000      -0.98430000
C       -0.05980000      -3.49780000       0.33780000
C       -1.33970000      -2.64670000       0.58260000
C       -1.16450000      -2.00130000      -0.81750000
O       -1.10560000      -0.57520000      -0.87650000
H        0.49460000       1.52620000       0.77640000
H        1.42040000      -1.19040000      -1.91860000
H        2.26650000      -2.09120000      -0.63920000
H        0.31340000      -3.33140000      -1.88230000
H       -0.25960000      -4.55860000       0.17530000
H        0.71900000      -3.40440000       1.09820000
H       -2.27140000      -3.19650000       0.72860000
H       -1.23670000      -1.91900000       1.39040000
H       -1.92820000      -2.27310000      -1.54570000
