18
Properties=species:S:1:pos:R:3 gdb_80530=T pbc="F F F"
C       -0.23820000       1.49770000      -0.12520000
N        0.11640000       0.09010000       0.00870000
C        1.22730000      -0.46660000      -0.80180000
C        1.85270000      -1.09290000       0.44820000
C        2.15080000      -0.04600000       1.47050000
O        2.59900000       1.23100000       1.12800000
C        0.70150000      -0.39280000       1.25070000
C       -0.13770000      -0.98520000       2.31240000
O        0.28970000      -1.45210000       3.34250000
H        0.61870000       2.17880000      -0.04150000
H       -0.72680000       1.65210000      -1.09330000
H       -0.96280000       1.75440000       0.65440000
H        0.87900000      -1.19000000      -1.54510000
H        1.85670000       0.28580000      -1.29330000
H        2.16570000      -2.12350000       0.55470000
H        2.52440000      -0.44090000       2.41540000
H        3.52130000       1.15950000       0.85700000
H       -1.22270000      -0.99010000       2.06680000
