18
Properties=species:S:1:pos:R:3 gdb_68263=T pbc="F F F"
C        0.00760000       1.48200000       0.07990000
C        0.03580000      -0.01190000      -0.03420000
C        0.68490000      -0.93000000      -1.10910000
C        0.10720000      -1.85860000      -0.01720000
N        0.60840000      -0.91730000       1.06350000
C       -1.20800000      -0.97940000      -0.00110000
N       -2.04120000      -0.88220000       1.16990000
C       -2.04100000      -1.03470000      -1.20070000
N       -2.71370000      -1.09840000      -2.13850000
H        1.02150000       1.88900000       0.15140000
H       -0.47560000       1.92020000      -0.79880000
H       -0.55390000       1.78250000       0.96900000
H        0.24930000      -0.95350000      -2.11120000
H        1.77640000      -0.88750000      -1.14410000
H        0.18180000      -2.94200000       0.08190000
H        1.63060000      -0.87950000       1.02330000
H       -2.71500000      -1.64000000       1.20320000
H       -1.43510000      -0.94370000       1.98340000
