15
Properties=species:S:1:pos:R:3 gdb_30233=T pbc="F F F"
O       -0.20960000       1.54470000      -0.01690000
C        0.04220000       0.16300000      -0.05210000
C       -1.29090000      -0.65690000       0.12610000
N       -1.05890000      -1.18860000      -1.22540000
C        0.14290000      -0.52730000      -1.41360000
C        0.72060000      -0.99650000      -2.53790000
N       -0.17370000      -1.96580000      -3.01950000
C       -1.29300000      -2.15750000      -2.18650000
O       -2.19920000      -2.95260000      -2.32150000
H        0.60150000       2.00860000      -0.24890000
H        0.83450000      -0.12280000       0.65120000
H       -1.27620000      -1.41450000       0.91290000
H       -2.17760000      -0.02600000       0.21240000
H        1.64550000      -0.77190000      -3.04000000
H       -0.07790000      -2.48160000      -3.87660000
