17
Properties=species:S:1:pos:R:3 gdb_30462=T pbc="F F F"
C        0.00830000       1.44330000       0.02120000
N       -0.00440000      -0.00680000      -0.02990000
C        0.54740000      -0.64820000       0.91900000
O        1.14560000       0.02200000       1.97950000
C        1.76890000      -0.64840000       2.99030000
C        1.81180000      -1.99330000       3.07240000
N        2.35460000      -2.69900000       4.16460000
C        1.18450000      -2.73880000       2.00340000
C        0.59300000      -2.09520000       0.97890000
H        1.02980000       1.84940000       0.04630000
H       -0.49640000       1.83750000      -0.86430000
H       -0.50560000       1.83100000       0.91250000
H        2.19740000       0.03270000       3.71530000
H        2.88570000      -2.10790000       4.79200000
H        2.93550000      -3.47670000       3.87360000
H        1.19400000      -3.82350000       2.05040000
H        0.11670000      -2.61600000       0.15850000
