12
Properties=species:S:1:pos:R:3 gdb_14571=T pbc="F F F"
N        0.01010000      -1.17570000      -0.00430000
C       -0.01890000      -0.02100000       0.00210000
C       -0.02670000       1.43930000       0.00990000
C        1.41520000       2.01470000      -0.00050000
C        1.41700000       3.46690000       0.00720000
C        1.39550000       4.67420000       0.01390000
C        1.37780000       6.03980000       0.02140000
N        1.36100000       7.20100000       0.02790000
H       -0.57860000       1.80050000      -0.86330000
H       -0.56220000       1.79110000       0.89700000
H        1.96420000       1.64020000       0.87100000
H        1.94780000       1.64960000      -0.88600000
