17
Properties=species:S:1:pos:R:3 gdb_60991=T pbc="F F F"
C       -0.46190000       1.32340000       0.06360000
C        0.01500000      -0.10490000      -0.18470000
C        0.88690000      -0.20140000      -1.43750000
O        0.76370000       0.51510000      -2.39440000
N        0.80090000      -0.58850000       0.95560000
C        0.07980000      -1.07000000       2.11680000
C        0.83460000      -2.03190000       1.24810000
C        0.09190000      -2.97240000       0.44410000
N       -0.47970000      -3.72640000      -0.22170000
H        0.38300000       1.96590000       0.32570000
H       -0.92420000       1.71310000      -0.84500000
H       -1.19130000       1.35600000       0.87720000
H       -0.86070000      -0.75250000      -0.37840000
H        1.65100000      -1.00890000      -1.40880000
H        0.49060000      -0.80170000       3.08540000
H       -1.00640000      -1.11990000       2.06680000
H        1.80190000      -2.40200000       1.57480000
