13
Properties=species:S:1:pos:R:3 gdb_1648=T pbc="F F F"
C        0.11510000       1.48530000       0.00900000
N       -0.08860000       0.05020000       0.00300000
C       -1.22770000      -0.59050000       0.01060000
N       -2.43600000      -0.07700000       0.02530000
H       -3.14710000      -0.80950000       0.02820000
H       -2.66760000       0.90260000       0.03300000
C       -1.13950000      -2.16940000       0.00090000
O        0.03320000      -2.56500000      -0.01260000
O       -2.25740000      -2.69700000       0.00920000
H        1.18530000       1.69330000      -0.00030000
H       -0.33440000       1.95080000      -0.87570000
H       -0.31690000       1.94080000       0.90760000
H        0.67640000      -0.63150000      -0.00820000
