13
Properties=species:S:1:pos:R:3 gdb_5462=T pbc="F F F"
N        0.04580000       1.41580000       0.16670000
C        0.03840000       0.03310000       0.04600000
C       -1.06840000      -0.78850000       0.01070000
O       -0.65860000      -2.10880000      -0.02990000
C        0.68700000      -2.09870000      -0.03090000
C        1.17880000      -0.83090000       0.01550000
C       -2.43340000      -0.48510000       0.01250000
C       -3.59950000      -0.17190000       0.00520000
H        0.80570000       1.87080000      -0.31920000
H       -0.84180000       1.84290000      -0.06380000
H        1.16320000      -3.06540000      -0.06580000
H        2.21750000      -0.53980000       0.03570000
H       -4.62780000       0.09120000       0.01390000
