22
Properties=species:S:1:pos:R:3 gdb_30647=T pbc="F F F"
C       -0.24070000       1.60910000       0.37580000
C       -0.20240000       0.07910000       0.31470000
C       -1.48530000      -0.57950000      -0.25400000
C       -1.73160000      -0.19610000      -1.72000000
C       -1.44410000      -2.07350000      -0.08300000
C       -1.20730000      -3.10200000      -0.97140000
C       -1.25140000      -4.32860000      -0.24880000
C       -1.51510000      -4.02070000       1.06330000
N       -1.62690000      -2.65440000       1.15260000
H        0.66100000       2.00150000       0.85660000
H       -0.30180000       2.05910000      -0.61960000
H       -1.10370000       1.96210000       0.95270000
H        0.65280000      -0.25330000      -0.28720000
H       -0.02770000      -0.31410000       1.32380000
H       -2.33320000      -0.19650000       0.33650000
H       -1.86550000       0.88290000      -1.83040000
H       -0.88500000      -0.49310000      -2.34880000
H       -2.62690000      -0.69010000      -2.10690000
H       -1.02380000      -2.98880000      -2.02860000
H       -1.11100000      -5.32050000      -0.65040000
H       -1.63820000      -4.64670000       1.93240000
H       -1.83590000      -2.14760000       1.99520000
