13
Properties=species:S:1:pos:R:3 gdb_15751=T pbc="F F F"
N       -0.08560000       1.06700000      -0.74080000
C       -0.03000000      -0.04840000      -0.16560000
O       -0.99070000      -0.98030000      -0.48440000
C       -0.99380000      -2.15970000       0.20460000
O       -0.24450000      -2.43450000       1.10230000
C       -2.07530000      -3.07190000      -0.28410000
C       -3.37590000      -2.54080000      -0.74230000
O       -2.41340000      -3.02170000      -1.66580000
H        0.68320000       1.65710000      -0.42560000
H        0.68500000      -0.41270000       0.57190000
H       -2.01890000      -4.06190000       0.16120000
H       -4.25980000      -3.16240000      -0.61010000
H       -3.53430000      -1.46540000      -0.75150000
