20
Properties=species:S:1:pos:R:3 gdb_118326=T pbc="F F F"
C       -0.83520000       1.74700000       0.19930000
C       -0.43340000       0.31370000      -0.15680000
C       -1.47880000      -0.70150000       0.31210000
N       -1.12940000      -2.09200000      -0.02480000
C       -0.59210000      -2.87930000       0.95950000
O       -0.24710000      -4.04480000       0.87940000
C       -1.40860000      -2.52930000      -1.35440000
N       -0.90270000      -3.75730000      -1.67640000
N       -2.05360000      -1.72050000      -2.10910000
H       -0.08030000       2.46190000      -0.14020000
H       -1.78610000       2.01820000      -0.27160000
H       -0.95110000       1.87620000       1.28160000
H       -0.31820000       0.21420000      -1.23990000
H        0.53570000       0.07000000       0.29670000
H       -1.59600000      -0.65100000       1.39930000
H       -2.44470000      -0.48500000      -0.14480000
H       -0.49750000      -2.32020000       1.90630000
H       -0.59670000      -4.35260000      -0.91480000
H       -1.26210000      -4.18320000      -2.51340000
H       -2.19100000      -2.12380000      -3.03360000
