17
Properties=species:S:1:pos:R:3 gdb_5271=T pbc="F F F"
O       -0.06930000       1.42060000       0.01080000
C        0.03480000       0.00810000       0.00250000
C       -1.39500000      -0.53740000       0.01160000
N       -1.43810000      -1.98520000       0.00450000
C       -1.41790000      -2.77920000      -1.11780000
C       -1.37730000      -4.09450000      -0.71790000
C       -1.36760000      -4.10170000       0.70440000
C       -1.40270000      -2.79060000       1.11830000
H        0.81760000       1.79120000       0.00520000
H        0.55900000      -0.36190000      -0.89180000
H        0.57390000      -0.37140000       0.88380000
H       -1.91540000      -0.16660000       0.89930000
H       -1.93030000      -0.15730000      -0.86320000
H       -1.44190000      -2.33450000      -2.10050000
H       -1.37050000      -4.95340000      -1.37130000
H       -1.35190000      -4.96730000       1.34880000
H       -1.41330000      -2.35610000       2.10570000
