13
Properties=species:S:1:pos:R:3 gdb_123528=T pbc="F F F"
C        0.05920000       1.36880000       0.00940000
N        1.31220000       1.83770000      -0.00020000
N        2.06170000       0.71710000      -0.01390000
C        3.41130000       0.63400000      -0.02760000
N        4.01980000      -0.51630000      -0.04000000
C        3.21880000      -1.62700000      -0.03840000
N        1.91000000      -1.66110000      -0.02580000
C        1.29280000      -0.46070000      -0.01300000
C       -0.02430000      -0.03460000       0.00230000
H       -0.75760000       2.07650000       0.02140000
H        3.95310000       1.57510000      -0.02750000
H        3.74300000      -2.57790000      -0.04890000
H       -0.90340000      -0.65550000       0.00740000
