18
Properties=species:S:1:pos:R:3 gdb_97337=T pbc="F F F"
C       -0.21910000       1.36070000       0.01310000
N       -0.11990000      -0.08590000       0.00790000
C        0.57280000      -0.61380000       0.90980000
O        0.68490000      -1.98340000       0.92950000
C        1.44690000      -2.55100000       1.92180000
O        2.02090000      -1.92050000       2.77300000
C        1.45000000      -4.02220000       1.78230000
C        2.72170000      -4.75130000       2.19150000
C        1.51900000      -4.83680000       3.06600000
H        0.14830000       1.75020000      -0.94260000
H       -1.27320000       1.64890000       0.09020000
H        0.33840000       1.84710000       0.82820000
H        1.12050000      -0.11570000       1.71250000
H        0.87510000      -4.41270000       0.95350000
H        3.00130000      -5.61080000       1.59390000
H        3.54140000      -4.12540000       2.52380000
H        1.52690000      -4.26860000       3.98860000
H        0.94710000      -5.75680000       3.08760000
