19
Properties=species:S:1:pos:R:3 gdb_68861=T pbc="F F F"
C       -0.00100000       1.53360000      -0.06060000
C        0.16900000       0.04030000      -0.00270000
C        0.35460000      -0.73870000      -1.30850000
C        1.09780000      -1.99520000      -0.88470000
O        2.41050000      -1.74020000      -0.35900000
C        1.33450000      -1.98470000       0.56090000
C        0.75620000      -0.71100000       1.12710000
C        1.30780000      -0.14210000       2.40320000
O       -0.67270000      -0.66660000       0.93320000
H        0.86530000       2.00190000      -0.53930000
H       -0.88890000       1.79130000      -0.64890000
H       -0.12580000       1.96030000       0.93660000
H       -0.61680000      -0.98060000      -1.75370000
H        0.93210000      -0.16520000      -2.04140000
H        0.99960000      -2.91830000      -1.44890000
H        1.41970000      -2.88450000       1.16580000
H        2.39060000      -0.00510000       2.31620000
H        0.84880000       0.81820000       2.64650000
H        1.12010000      -0.82620000       3.23830000
