10
Properties=species:S:1:pos:R:3 gdb_132342=T pbc="F F F"
F       -0.25580000      -0.06220000       0.07470000
C        0.02630000       1.23300000       0.00630000
N       -1.13630000       1.95660000      -0.03980000
C       -1.09440000       3.23790000       0.02970000
F       -2.25300000       3.85450000      -0.02660000
N       -0.09340000       4.11010000       0.21140000
C        1.13130000       4.06490000       0.05190000
N        2.28080000       4.37020000      -0.11650000
O        1.17590000       1.59080000      -0.01420000
H        3.07910000       3.77240000       0.02870000
