17
Properties=species:S:1:pos:R:3 gdb_37154=T pbc="F F F"
C       -0.10080000       1.54910000       0.01460000
C        1.42250000       1.25380000      -0.00220000
C        1.33020000       0.15870000       1.08520000
C        1.83990000      -0.96010000       0.17670000
C        0.80830000      -2.10140000       0.26440000
N       -0.02930000      -2.06600000       1.49070000
C       -0.49660000      -1.37210000       0.26860000
C        0.05160000       0.03250000       0.19650000
N        1.20070000      -0.00980000      -0.86060000
H       -0.48840000       2.10770000       0.86940000
H       -0.53660000       1.88790000      -0.92900000
H        2.23740000       1.94700000      -0.21170000
H        1.36600000       0.26110000       2.17160000
H        2.89110000      -1.22280000       0.04470000
H        0.94800000      -3.03560000      -0.26680000
H       -0.52130000      -2.95430000       1.57380000
H       -1.36710000      -1.71180000      -0.27810000
