12
Properties=species:S:1:pos:R:3 gdb_129259=T pbc="F F F"
N       -0.03710000       1.28860000       0.01010000
C       -0.05090000       0.02800000       0.00290000
O        1.17130000      -0.67820000      -0.00810000
N        1.24970000      -2.04790000      -0.01630000
C        0.12110000      -2.68760000      -0.01320000
C       -1.15560000      -1.97180000      -0.00130000
N       -1.23770000      -0.69580000       0.00630000
C        0.14600000      -4.10720000      -0.02140000
C        0.09140000      -5.30880000      -0.02790000
H        0.92080000       1.64000000       0.00630000
H       -2.07460000      -2.55590000       0.00100000
H        0.06590000      -6.37120000      -0.03350000
