17
Properties=species:S:1:pos:R:3 gdb_22803=T pbc="F F F"
O        0.02730000       1.33490000      -0.08760000
N        0.02710000      -0.04360000      -0.05740000
C       -1.12370000      -0.59950000       0.03080000
C       -1.12800000      -2.10970000       0.04180000
C       -2.19550000      -2.62920000      -0.92840000
C       -3.56710000      -2.11450000      -0.49990000
N       -3.53140000      -0.67800000      -0.25900000
C       -2.45820000       0.10490000       0.09870000
O       -2.60690000       1.26650000       0.42450000
H        0.96690000       1.53090000      -0.18100000
H       -0.12860000      -2.46850000      -0.21330000
H       -1.35830000      -2.47200000       1.05430000
H       -1.96880000      -2.28550000      -1.94400000
H       -2.20890000      -3.72310000      -0.94470000
H       -4.31550000      -2.32130000      -1.27280000
H       -3.88880000      -2.64740000       0.40880000
H       -4.41220000      -0.19530000      -0.14840000
