14
Properties=species:S:1:pos:R:3 gdb_21215=T pbc="F F F"
C       -0.07500000       1.47630000      -0.08720000
N        0.19280000       0.05890000       0.09890000
C        0.66240000      -0.66120000      -0.98190000
N        1.17330000      -0.11920000      -2.08490000
N        1.51900000      -1.18150000      -2.82430000
N        1.29990000      -2.37780000      -2.27030000
C        0.74490000      -2.06980000      -1.11250000
O        0.30580000      -2.96900000      -0.20510000
H        0.85040000       1.98620000      -0.36710000
H       -0.81770000       1.68100000      -0.87270000
H       -0.42940000       1.89470000       0.85750000
H       -0.51640000      -0.43860000       0.61740000
H        2.05890000      -1.08290000      -3.66530000
H        0.47120000      -3.85020000      -0.56130000
