17
Properties=species:S:1:pos:R:3 gdb_62374=T pbc="F F F"
C       -0.11690000       1.52820000      -0.01430000
C       -0.00950000       0.00120000       0.00180000
C       -1.30400000      -0.58890000      -0.33090000
N       -2.35270000      -0.99440000      -0.60010000
C        1.27350000      -0.62360000      -0.70270000
N        2.01550000      -0.15000000       0.51440000
C        0.78470000      -0.63770000       1.22400000
C        0.73210000      -2.13450000       0.86380000
C        1.06090000      -2.12500000      -0.43170000
H        0.84730000       1.97040000       0.23360000
H       -0.43280000       1.87680000      -1.00240000
H       -0.86680000       1.86430000       0.70840000
H        1.61030000      -0.28420000      -1.68180000
H        2.81570000      -0.75040000       0.71300000
H        0.61290000      -0.31300000       2.24980000
H        0.43830000      -2.94740000       1.51100000
H        1.11400000      -2.92800000      -1.15170000
