16
Properties=species:S:1:pos:R:3 gdb_37163=T pbc="F F F"
N       -0.03390000       1.45890000      -0.24770000
C        1.28010000       0.81780000       0.01940000
C        0.03060000      -0.00660000      -0.05480000
C        0.36700000      -0.71340000      -1.34690000
O       -0.05160000      -1.67230000      -2.35050000
C        1.29580000      -1.16240000      -2.79210000
C        1.87520000      -1.11940000      -1.36100000
C        2.09070000       0.42170000      -1.25330000
C        1.00510000       0.28860000      -2.34500000
H       -0.37110000       1.89790000       0.60740000
H        1.78050000       1.00660000       0.96300000
H       -0.41240000      -0.49090000       0.80660000
H        1.67270000      -1.57790000      -3.72440000
H        2.32210000      -1.93540000      -0.79360000
H        3.05410000       0.90370000      -1.41610000
H        0.46120000       1.05780000      -2.88450000
