11
Properties=species:S:1:pos:R:3 gdb_23903=T pbc="F F F"
O       -0.01250000       1.45590000       0.01110000
C        0.00660000       0.03870000       0.00180000
C       -1.36360000      -0.46190000       0.01240000
C       -2.48080000      -0.90020000       0.02080000
C       -3.84160000      -1.42950000       0.03110000
F       -3.83630000      -2.77020000       0.02460000
F       -4.51400000      -1.03270000       1.11940000
F       -4.53430000      -1.02240000      -1.04060000
H        0.90160000       1.75790000       0.00410000
H        0.51490000      -0.35860000      -0.89150000
H        0.53260000      -0.37000000       0.87960000
