21
Properties=species:S:1:pos:R:3 gdb_69845=T pbc="F F F"
C        0.01940000       1.46160000       0.01580000
C       -0.03690000      -0.04490000      -0.00930000
C       -0.89360000      -0.82150000       0.96130000
C        0.61320000      -0.92670000       1.04230000
C        1.36220000      -1.88520000       0.09970000
C        0.34360000      -2.29750000      -0.97780000
C        0.50330000      -0.78500000      -1.27330000
C        0.28230000      -0.18040000      -2.63260000
O        1.92730000      -0.94930000      -0.88930000
H        1.00090000       1.81830000      -0.31460000
H       -0.74200000       1.91170000      -0.63230000
H       -0.14830000       1.84040000       1.02900000
H       -1.35830000      -0.22780000       1.74440000
H       -1.50380000      -1.66080000       0.65090000
H        1.14120000      -0.50860000       1.89160000
H        2.09670000      -2.56890000       0.52400000
H        0.82730000      -2.88350000      -1.75940000
H       -0.62270000      -2.72900000      -0.71590000
H       -0.78810000      -0.14640000      -2.86150000
H        0.67120000       0.84120000      -2.67660000
H        0.78450000      -0.77160000      -3.40270000
