19
Properties=species:S:1:pos:R:3 gdb_111765=T pbc="F F F"
C       -0.46330000       1.20300000       0.05220000
O        0.39310000       0.07510000       0.17030000
C        0.82220000      -0.42330000      -1.03400000
C        0.13390000      -1.55840000      -1.79940000
O        1.42430000      -2.11620000      -2.17310000
C        2.09990000      -1.14460000      -1.36390000
C        1.87700000       0.25360000      -1.89710000
C        1.76900000       0.56780000      -3.37180000
O        3.04340000       0.63070000      -3.99640000
H        0.03120000       2.02490000      -0.48240000
H       -1.39570000       0.95230000      -0.47210000
H       -0.70290000       1.52540000       1.06740000
H       -0.39730000      -2.23740000      -1.12310000
H       -0.49080000      -1.32380000      -2.66800000
H        2.94160000      -1.47080000      -0.76480000
H        2.43440000       0.98740000      -1.31690000
H        1.12190000      -0.16510000      -3.87120000
H        1.31980000       1.55610000      -3.51540000
H        3.43510000      -0.24640000      -3.92550000
