18
Properties=species:S:1:pos:R:3 gdb_20127=T pbc="F F F"
O        0.37830000       1.69590000       0.03010000
C        0.19000000       0.28210000      -0.01240000
C        0.71290000      -0.33230000      -1.28970000
C        0.08100000      -1.58610000      -1.83990000
C       -0.10950000      -0.27160000      -2.55160000
C        0.81320000      -0.35700000       1.21560000
C        0.06510000      -0.51060000       2.46510000
O        0.29540000      -1.63050000       1.60280000
H        1.24960000       1.88900000      -0.33120000
H       -0.89420000       0.12440000       0.04330000
H        1.79330000      -0.25000000      -1.40660000
H        0.73060000      -2.32880000      -2.28870000
H       -0.75700000      -2.00340000      -1.29350000
H       -1.08120000       0.20730000      -2.49230000
H        0.40530000      -0.11500000      -3.49300000
H        1.90190000      -0.27710000       1.27470000
H        0.59470000      -0.53740000       3.41600000
H       -0.96630000      -0.16400000       2.51620000
