20
Properties=species:S:1:pos:R:3 gdb_101046=T pbc="F F F"
C       -0.59120000       1.31830000       0.01870000
C        0.05370000      -0.06880000      -0.05590000
C        1.01840000      -0.15760000      -1.25650000
O        0.37310000       0.08590000      -2.49540000
C        0.77880000      -0.51400000       1.22570000
C        1.78560000       0.39070000       1.92900000
C        0.47850000       0.08670000       2.59360000
C        1.10130000      -1.92200000       1.23420000
N        1.34520000      -3.05340000       1.22340000
H        0.12920000       2.09330000       0.30280000
H       -0.97190000       1.57620000      -0.97210000
H       -1.42560000       1.34760000       0.72430000
H       -0.74720000      -0.80120000      -0.23190000
H        1.78970000       0.61580000      -1.16410000
H        1.52830000      -1.13110000      -1.25650000
H       -0.17820000      -0.67700000      -2.69730000
H        2.68570000      -0.07000000       2.31740000
H        1.92940000       1.37950000       1.50960000
H       -0.27110000       0.86690000       2.63340000
H        0.47530000      -0.58890000       3.44040000
