18
Properties=species:S:1:pos:R:3 gdb_127842=T pbc="F F F"
C       -0.03810000       1.45060000       0.02600000
N       -0.02430000      -0.00130000       0.03190000
C        0.54120000      -0.61640000      -0.95000000
C        0.58670000      -2.06480000      -0.99640000
C        1.18620000      -2.69460000      -2.02920000
N        1.77500000      -1.99650000      -3.05320000
C        2.32940000      -2.65920000      -4.22180000
N        1.76380000      -0.65170000      -3.09550000
C        1.19780000      -0.01080000      -2.11820000
H        0.97170000       1.89150000       0.02580000
H       -0.57550000       1.87240000      -0.83850000
H       -0.54620000       1.80500000       0.92730000
H        0.13730000      -2.62750000      -0.18810000
H        1.24780000      -3.77330000      -2.11190000
H        1.55590000      -2.87530000      -4.96880000
H        3.07420000      -1.99890000      -4.66530000
H        2.80570000      -3.59620000      -3.92290000
H        1.23880000       1.06820000      -2.21600000
