19
Properties=species:S:1:pos:R:3 gdb_128461=T pbc="F F F"
C       -0.91080000       1.55630000       0.29000000
O       -0.58970000       0.21590000       0.59040000
C       -1.22590000      -0.75070000      -0.24180000
C       -0.54390000      -0.87630000      -1.60810000
C       -1.20330000      -2.04570000       0.52170000
C       -1.49540000      -3.35230000       0.17370000
C       -1.30680000      -4.08710000       1.36330000
N       -0.92360000      -3.31070000       2.37400000
N       -0.87670000      -2.07860000       1.83510000
H       -0.42480000       2.17770000       1.04590000
H       -0.54610000       1.86370000      -0.69970000
H       -1.99680000       1.73080000       0.32980000
H       -2.27480000      -0.44350000      -0.39590000
H       -0.59730000       0.06450000      -2.16320000
H        0.50530000      -1.15410000      -1.47880000
H       -1.03650000      -1.64650000      -2.20820000
H       -1.80510000      -3.71890000      -0.79150000
H       -1.43200000      -5.14840000       1.52150000
H       -0.57980000      -1.28580000       2.37850000
