23
Properties=species:S:1:pos:R:3 gdb_104779=T pbc="F F F"
C        0.70340000      -0.21450000       1.36260000
C        0.04000000      -0.10000000      -0.01470000
C       -1.38620000      -0.65630000      -0.09000000
C       -2.37660000      -0.02180000       0.89700000
C       -2.57080000       1.49000000       0.73560000
C       -1.98820000      -0.75240000      -1.55250000
C       -2.05870000      -2.27260000      -1.38180000
O       -0.72790000      -2.74090000      -1.12400000
C       -1.48170000      -2.20480000      -0.03240000
H        1.74630000       0.11380000       1.31660000
H        0.20120000       0.39830000       2.11820000
H        0.70200000      -1.25040000       1.71990000
H        0.03670000       0.94860000      -0.33770000
H        0.64070000      -0.64540000      -0.74970000
H       -3.34670000      -0.52440000       0.78440000
H       -2.04940000      -0.23790000       1.92190000
H       -1.64860000       2.04220000       0.93990000
H       -2.89220000       1.74780000      -0.27920000
H       -3.33480000       1.85730000       1.42770000
H       -2.97020000      -0.27980000      -1.63420000
H       -1.34970000      -0.40920000      -2.37060000
H       -2.75140000      -2.98180000      -1.82010000
H       -1.62370000      -2.84280000       0.83400000
