14
Properties=species:S:1:pos:R:3 gdb_130068=T pbc="F F F"
N       -0.18630000       1.29460000      -0.24540000
C       -0.05860000      -0.05730000      -0.05930000
N       -1.04950000      -0.93410000      -0.20730000
N       -0.40130000      -2.08560000       0.02110000
C       -1.05070000      -3.37030000      -0.06580000
C       -1.51960000      -3.68690000      -1.48740000
O       -2.32870000      -4.54050000      -1.72060000
N        0.88460000      -1.93820000       0.28290000
N        1.12730000      -0.65160000       0.24360000
H        0.53450000       1.83790000       0.20520000
H       -1.11720000       1.65740000      -0.10820000
H       -0.31490000      -4.11890000       0.24200000
H       -1.90580000      -3.41340000       0.61340000
H       -1.03780000      -3.07860000      -2.28210000
