15
Properties=species:S:1:pos:R:3 gdb_105146=T pbc="F F F"
O        0.10740000       1.35820000      -0.45010000
C        0.02320000       0.07830000       0.13190000
C       -1.39240000      -0.49590000       0.04080000
C       -1.84840000      -1.12780000      -1.25180000
C       -1.60940000      -2.01610000      -0.05060000
C       -0.47220000      -2.89370000      -0.00750000
N        0.44130000      -3.60220000       0.02660000
C       -2.36620000       0.23760000       0.81100000
N       -3.11420000       0.86130000       1.43530000
H       -0.34720000       1.98630000       0.12210000
H        0.70310000      -0.56900000      -0.42820000
H        0.34910000       0.07560000       1.18100000
H       -2.87620000      -0.98950000      -1.56310000
H       -1.11840000      -1.15520000      -2.05190000
H       -2.48620000      -2.40050000       0.45870000
