21
Properties=species:S:1:pos:R:3 gdb_112268=T pbc="F F F"
C       -0.18590000       1.61300000       0.27510000
C       -0.07550000       0.10000000       0.05970000
C        0.90520000      -0.54780000       1.01720000
O        0.43880000      -0.45770000       2.41600000
C        0.43470000      -1.82060000       2.55680000
O        0.09210000      -2.45100000       3.50710000
C        0.96720000      -2.09280000       1.14760000
C        0.13360000      -3.00940000       0.25120000
C        0.22280000      -4.47360000       0.69720000
H        0.77790000       2.10800000       0.11320000
H       -0.90970000       2.05500000      -0.41530000
H       -0.50910000       1.83330000       1.29630000
H       -1.06000000      -0.36550000       0.17870000
H        0.25570000      -0.11500000      -0.96440000
H        1.88880000      -0.07190000       0.94740000
H        1.99900000      -2.45790000       1.19200000
H       -0.91370000      -2.68840000       0.25880000
H        0.48300000      -2.90870000      -0.78360000
H       -0.40270000      -5.11190000       0.06660000
H        1.25200000      -4.84350000       0.63260000
H       -0.10700000      -4.58290000       1.73390000
