23
Properties=species:S:1:pos:R:3 gdb_118967=T pbc="F F F"
C        0.02430000       1.53530000       0.10300000
C       -0.00230000       0.02080000      -0.02310000
O        0.39230000      -0.52930000       1.22310000
C        0.65320000      -1.91570000       1.23980000
C       -0.58020000      -2.75770000       0.93210000
C        1.95600000      -2.36440000       0.52480000
O        2.52020000      -2.83680000       1.76130000
C        1.40560000      -2.32900000       2.53840000
C        1.81860000      -1.23890000       3.50660000
H        1.03280000       1.88420000       0.34210000
H       -0.29440000       2.00200000      -0.83390000
H       -0.64860000       1.86320000       0.90050000
H       -1.01180000      -0.31890000      -0.29850000
H        0.68130000      -0.30930000      -0.82150000
H       -0.92450000      -2.61590000      -0.09700000
H       -0.35220000      -3.81970000       1.06110000
H       -1.39830000      -2.49300000       1.60990000
H        1.85880000      -3.16570000      -0.21790000
H        2.53710000      -1.53840000       0.09430000
H        0.91450000      -3.15050000       3.07800000
H        2.26230000      -0.39280000       2.97910000
H        0.95230000      -0.87700000       4.06960000
H        2.54910000      -1.64110000       4.21540000
