21
Properties=species:S:1:pos:R:3 gdb_76986=T pbc="F F F"
C       -0.24040000       1.47860000      -0.12040000
C        0.08460000      -0.00950000      -0.05370000
C        1.24260000      -0.65460000      -0.90540000
C        2.23960000       0.16370000      -1.67730000
O        2.43960000       1.34790000      -1.55060000
C        1.83420000      -1.24320000       0.40200000
C        2.14160000      -0.12820000       1.36730000
C        0.71820000      -0.59270000       1.22490000
C       -0.07670000      -1.15340000       2.36990000
H        0.62510000       2.10140000       0.10720000
H       -0.59040000       1.75990000      -1.11900000
H       -1.04060000       1.71530000       0.59050000
H       -0.82540000      -0.57790000      -0.27830000
H        0.86840000      -1.44830000      -1.55980000
H        2.86470000      -0.43870000      -2.37960000
H        2.26950000      -2.23130000       0.49170000
H        2.63400000      -0.44440000       2.28190000
H        2.46630000       0.84110000       1.00010000
H       -0.56530000      -0.35530000       2.94210000
H       -0.86000000      -1.83480000       2.01770000
H        0.56310000      -1.70820000       3.06420000
