13
Properties=species:S:1:pos:R:3 gdb_21112=T pbc="F F F"
C       -0.03300000       1.43960000       0.00040000
N       -0.00860000      -0.01690000       0.02850000
N       -0.04520000      -0.62650000      -1.14550000
N       -0.02690000      -1.90660000      -1.20280000
C        0.03160000      -2.58350000       0.00460000
N        0.07020000      -2.07590000       1.18850000
C        0.05100000      -0.68730000       1.27510000
N        0.08080000       0.01630000       2.33440000
H        0.86300000       1.82770000       0.48970000
H       -0.07770000       1.74420000      -1.04420000
H       -0.90140000       1.79950000       0.55670000
H        0.04530000      -3.66590000      -0.09950000
H        0.12250000      -0.60690000       3.14000000
