14
Properties=species:S:1:pos:R:3 gdb_20459=T pbc="F F F"
C       -0.02880000       1.54390000       0.19090000
N        1.30830000       1.95070000      -0.33530000
C        2.18380000       0.75000000      -0.52400000
C        1.22620000      -0.39390000      -0.36750000
C       -0.00140000       0.05750000       0.02280000
N       -0.72720000      -1.06380000       0.18990000
N        0.02570000      -2.16410000      -0.10340000
N        1.21970000      -1.74810000      -0.43250000
H       -0.13470000       1.83040000       1.24680000
H       -0.83040000       2.04890000      -0.35930000
H        1.17150000       2.38780000      -1.23710000
H        2.67920000       0.78990000      -1.49940000
H        2.97360000       0.72900000       0.23830000
H       -1.68820000      -1.19550000       0.46040000
