16
Properties=species:S:1:pos:R:3 gdb_44181=T pbc="F F F"
O        0.36890000       0.46530000      -1.17510000
C        0.16120000       1.34180000      -0.39170000
C       -1.11990000       1.89700000       0.28160000
C       -0.28470000       3.09620000       0.81520000
C        0.30970000       2.90030000       2.24140000
N        1.35640000       2.00750000       1.65790000
C        1.02890000       2.43450000       0.26880000
C        0.82040000       4.11850000       2.84990000
C        1.26970000       5.11900000       3.34420000
H       -1.89380000       2.16120000      -0.44500000
H       -1.56470000       1.24530000       1.03900000
H       -0.61600000       4.09370000       0.54090000
H       -0.34470000       2.37750000       2.95010000
H        2.30090000       2.21880000       1.95570000
H        1.81330000       2.93350000      -0.30400000
H        1.65880000       6.00140000       3.78940000
