19
Properties=species:S:1:pos:R:3 gdb_62048=T pbc="F F F"
C       -0.77040000       1.30940000       1.73310000
C        0.22630000       0.38760000       1.03010000
O        0.51280000      -0.67350000       1.94570000
C        1.58540000      -1.51940000       1.56720000
C        2.93580000      -0.90740000       1.84920000
C        4.11750000      -1.25670000       1.05100000
O        3.45960000      -0.00400000       0.86630000
C       -0.31030000      -0.12820000      -0.23740000
C       -0.75540000      -0.55000000      -1.27150000
H       -0.32830000       1.68570000       2.65900000
H       -1.02740000       2.15320000       1.08840000
H       -1.68260000       0.75870000       1.97490000
H        1.14690000       0.94480000       0.81070000
H        1.47090000      -2.42970000       2.16700000
H        1.51600000      -1.79530000       0.50580000
H        3.08430000      -0.57430000       2.87720000
H        5.10670000      -1.20530000       1.50300000
H        4.02070000      -1.96090000       0.22540000
H       -1.14650000      -0.91920000      -2.18740000
