23
Properties=species:S:1:pos:R:3 gdb_83787=T pbc="F F F"
C       -0.21210000       1.52030000      -0.04540000
C       -0.00620000       0.01880000      -0.00060000
C        1.23130000      -0.74260000      -0.42270000
C        2.58850000      -0.11460000      -0.70910000
C        3.11470000       0.90060000       0.33460000
C        2.92280000       0.45470000       1.78050000
C        1.83760000       1.05970000       2.64180000
C        1.68270000      -0.34770000       2.11800000
C        0.75690000      -0.81000000       1.02190000
H        0.69370000       2.10000000       0.12260000
H       -0.59980000       1.80980000      -1.02900000
H       -0.95070000       1.83460000       0.70100000
H       -0.91960000      -0.49310000      -0.30030000
H        1.04740000      -1.62080000      -1.03690000
H        3.31050000      -0.93950000      -0.77710000
H        2.58390000       0.36220000      -1.69740000
H        4.18190000       1.05600000       0.14540000
H        2.65090000       1.87750000       0.17190000
H        3.83290000       0.16040000       2.29370000
H        2.03140000       1.17870000       3.70270000
H        1.23100000       1.84960000       2.21690000
H        1.82820000      -1.11930000       2.86850000
H        0.23420000      -1.71960000       1.30300000
