18
Properties=species:S:1:pos:R:3 gdb_55929=T pbc="F F F"
C       -0.15930000       1.41570000       0.12620000
C       -0.15150000      -0.06110000      -0.18260000
O        0.43700000      -0.58840000      -1.09250000
O       -0.90710000      -0.74440000       0.70850000
C       -0.95040000      -2.16510000       0.51110000
C       -1.87810000      -2.91110000       1.48810000
N       -2.64620000      -3.54240000       0.35320000
C       -3.24210000      -2.41270000      -0.37500000
C       -1.81410000      -2.70030000      -0.61620000
H        0.46070000       1.94140000      -0.59870000
H       -1.18280000       1.79980000       0.09020000
H        0.21710000       1.59010000       1.13820000
H        0.06910000      -2.55090000       0.48100000
H       -1.37320000      -3.67440000       2.08210000
H       -2.48900000      -2.28050000       2.14100000
H       -3.94060000      -2.72550000      -1.14450000
H       -3.53420000      -1.52050000       0.17480000
H       -1.44070000      -3.09700000      -1.55250000
