21
Properties=species:S:1:pos:R:3 gdb_112851=T pbc="F F F"
C       -0.19150000       1.34840000       0.08590000
O       -0.05370000      -0.05990000       0.02490000
C        0.68240000      -0.59790000       1.07300000
O       -0.03550000      -0.44000000       2.29720000
C        0.26240000      -1.52830000       3.17520000
C       -0.90600000      -1.72200000       4.12960000
C        0.58580000      -2.69660000       2.25090000
C       -0.35670000      -2.92020000       1.09770000
C        0.88530000      -2.08930000       0.90520000
H        0.79040000       1.84400000       0.13090000
H       -0.70300000       1.65820000      -0.82810000
H       -0.78150000       1.65760000       0.95620000
H        1.65290000      -0.07050000       1.15200000
H        1.16800000      -1.29080000       3.75940000
H       -1.81200000      -1.99540000       3.58200000
H       -0.67940000      -2.51540000       4.84880000
H       -1.10120000      -0.80050000       4.68530000
H        1.16450000      -3.52330000       2.64590000
H       -0.36530000      -3.90620000       0.64790000
H       -1.31120000      -2.40610000       1.09190000
H        1.69050000      -2.43350000       0.26870000
