15
Properties=species:S:1:pos:R:3 gdb_124352=T pbc="F F F"
C       -0.08770000       1.47750000       0.00020000
C        0.06530000      -0.01920000      -0.00690000
O        1.13020000      -0.60090000       0.00790000
N       -1.13400000      -0.74800000      -0.02880000
N       -2.37990000      -0.11840000       0.03020000
N       -3.26050000      -1.04930000       0.06070000
C       -2.66890000      -2.28150000       0.02320000
C       -1.30160000      -2.11660000      -0.03600000
N       -0.26350000      -2.99010000      -0.15040000
H        0.90690000       1.92170000       0.00810000
H       -0.65070000       1.80650000      -0.87680000
H       -0.66000000       1.79670000       0.87470000
H       -3.24460000      -3.19180000       0.03530000
H       -0.43730000      -3.93800000       0.14010000
H        0.65190000      -2.60750000       0.04050000
