16
Properties=species:S:1:pos:R:3 gdb_15559=T pbc="F F F"
C        0.00450000       1.58210000       0.00790000
C       -0.00000000       0.05350000       0.01010000
C        0.80940000      -0.57390000      -1.16950000
N        1.98200000      -1.24710000      -0.58750000
C        1.86250000      -1.17990000       0.67590000
N        0.73690000      -0.50720000       1.16140000
C        0.38430000      -0.42250000       2.48390000
O        1.02410000      -0.89150000       3.39800000
H        1.03020000       1.96370000      -0.00790000
H       -0.51590000       1.95570000      -0.87970000
H       -0.50000000       1.98880000       0.88990000
H       -1.03070000      -0.31460000       0.02450000
H        0.22060000      -1.30560000      -1.73310000
H        1.13670000       0.19200000      -1.88070000
H        2.55430000      -1.59930000       1.39570000
H       -0.56640000       0.12600000       2.62550000
