25
Properties=species:S:1:pos:R:3 gdb_101682=T pbc="F F F"
C       -0.15600000       1.42480000       0.06670000
O        0.13730000       0.05260000      -0.03730000
C        0.68580000      -0.53620000       1.13770000
C       -0.38760000      -0.77710000       2.20410000
C        1.35090000      -1.84530000       0.70440000
C        2.48520000      -1.68850000      -0.32200000
C        3.71080000      -0.96090000       0.24640000
C        2.87830000      -3.06210000      -0.86810000
O        3.83490000      -2.88260000      -1.90390000
H        0.72610000       2.00780000       0.37600000
H       -0.46880000       1.76320000      -0.92460000
H       -0.97010000       1.63480000       0.77600000
H        1.44800000       0.14430000       1.55270000
H       -1.16330000      -1.44580000       1.81740000
H        0.05300000      -1.23540000       3.09530000
H       -0.86490000       0.15650000       2.51540000
H        1.72910000      -2.35370000       1.60130000
H        0.56550000      -2.48800000       0.28490000
H        2.09380000      -1.10870000      -1.16570000
H        4.08520000      -1.46710000       1.14570000
H        4.51570000      -0.94690000      -0.49150000
H        3.48070000       0.07350000       0.51740000
H        3.29070000      -3.68050000      -0.05200000
H        1.98120000      -3.57690000      -1.24810000
H        4.12230000      -3.75020000      -2.20140000
