15
Properties=species:S:1:pos:R:3 gdb_81326=T pbc="F F F"
O        0.16070000       1.33140000      -0.17880000
C        0.09250000      -0.04700000      -0.07350000
C        0.04510000      -0.63200000       1.39730000
O       -1.36470000      -0.20220000       1.42340000
C       -1.35560000      -0.66340000       0.03320000
C       -1.02840000      -2.15640000       0.17790000
C       -0.06520000      -2.11740000       1.12260000
C       -1.59080000      -3.21080000      -0.55900000
C       -2.10440000      -4.08420000      -1.21230000
H       -0.47590000       1.68160000       0.46050000
H        0.79460000      -0.48740000      -0.78370000
H        0.65300000      -0.25150000       2.21600000
H       -2.20410000      -0.34190000      -0.56770000
H        0.52460000      -2.91680000       1.54410000
H       -2.54920000      -4.86360000      -1.77980000
