17
Properties=species:S:1:pos:R:3 gdb_17416=T pbc="F F F"
O       -0.19350000       1.41160000      -0.13350000
C       -0.07000000       0.02140000      -0.04140000
C       -0.50280000      -0.68560000       1.22540000
C       -1.35510000      -0.73680000      -0.01310000
C       -2.78100000      -0.19930000      -0.15710000
N       -3.21960000      -1.45200000      -0.88250000
C       -2.38030000      -1.53190000      -2.09190000
C       -1.78260000      -1.94730000      -0.80590000
H        0.49720000       1.81010000       0.40640000
H        0.76440000      -0.40840000      -0.59770000
H        0.03700000      -1.57870000       1.52610000
H       -0.85710000      -0.06640000       2.04430000
H       -3.32060000      -0.10970000       0.78850000
H       -2.90880000       0.71850000      -0.73930000
H       -2.70250000      -2.31110000      -2.77620000
H       -2.04540000      -0.61210000      -2.56810000
H       -1.54780000      -2.97950000      -0.56400000
