21
Properties=species:S:1:pos:R:3 gdb_121251=T pbc="F F F"
O        0.20130000       1.41250000      -0.01540000
C        0.13280000       0.00890000       0.17180000
C       -1.25530000      -0.45140000      -0.26040000
C       -1.44520000      -1.95320000      -0.08360000
C       -1.66500000      -2.51630000       1.33960000
O       -2.85440000      -3.22460000       0.92830000
C       -2.81610000      -2.61430000      -0.39140000
C       -4.05640000      -1.75310000      -0.58110000
O       -5.21280000      -2.55170000      -0.41620000
H        1.07270000       1.71270000       0.25840000
H        0.89860000      -0.51380000      -0.42520000
H        0.30490000      -0.26200000       1.22700000
H       -1.99700000       0.10850000       0.31960000
H       -1.39780000      -0.17090000      -1.31100000
H       -0.64100000      -2.48580000      -0.60090000
H       -0.90120000      -3.19900000       1.72830000
H       -1.88330000      -1.75650000       2.10300000
H       -2.79860000      -3.38960000      -1.16730000
H       -4.05070000      -0.91140000       0.12860000
H       -4.08980000      -1.33840000      -1.59450000
H       -5.09100000      -3.01180000       0.42410000
