16
Properties=species:S:1:pos:R:3 gdb_75650=T pbc="F F F"
O        0.15990000       1.43910000      -0.13760000
C        0.08290000       0.05920000      -0.03560000
C        0.26060000      -0.64480000       1.40140000
O        0.76430000      -0.27440000       2.41320000
C       -0.67460000      -1.80090000       0.90010000
N       -2.23630000      -2.06980000       1.00680000
C       -2.32310000      -0.53340000       1.02670000
C       -1.23640000      -0.76060000      -0.05640000
C       -2.19700000      -1.90830000      -0.53330000
H       -0.25630000       1.82930000       0.63930000
H        0.80760000      -0.37040000      -0.73670000
H       -0.12580000      -2.66190000       0.50900000
H       -3.29010000      -0.14690000       0.69650000
H       -2.03530000      -0.10140000       1.98960000
H       -1.75270000      -2.75750000      -1.05680000
H       -3.16800000      -1.62920000      -0.94960000
