18
Properties=species:S:1:pos:R:3 gdb_89131=T pbc="F F F"
C        0.01730000       1.54000000       0.05430000
C       -0.02270000       0.03920000       0.05910000
C       -1.29440000      -0.81560000      -0.05170000
C       -0.69000000      -1.80090000       1.01370000
O       -0.64890000      -3.17750000       0.78010000
C        0.60190000      -0.96710000       1.02670000
C        1.17540000      -0.79200000      -0.37010000
C        1.09400000      -1.81840000      -1.37550000
N        0.98810000      -2.65440000      -2.17040000
H        1.01020000       1.91650000       0.32010000
H       -0.23810000       1.93760000      -0.93440000
H       -0.70150000       1.94920000       0.77250000
H       -2.19190000      -0.30550000       0.30440000
H       -1.49740000      -1.24320000      -1.03750000
H       -1.20780000      -1.67860000       1.96850000
H       -0.25760000      -3.34080000      -0.08650000
H        1.24510000      -0.79800000       1.88320000
H        2.11200000      -0.24290000      -0.38930000
