19
Properties=species:S:1:pos:R:3 gdb_61018=T pbc="F F F"
C       -0.07460000       1.44380000      -0.05160000
N        0.06660000       0.00150000       0.08900000
C        0.06750000      -0.54300000       1.34740000
O        0.00760000       0.09980000       2.37750000
C        0.04980000      -0.79930000      -1.11620000
C        0.93200000      -2.10230000      -1.26260000
C       -0.33410000      -2.84610000      -1.69490000
N       -1.25370000      -2.76920000      -0.53730000
C       -1.18520000      -1.64020000      -1.49400000
H        0.73100000       1.85270000      -0.67230000
H       -1.03550000       1.70990000      -0.50980000
H       -0.02500000       1.88030000       0.94540000
H        0.12630000      -1.64070000       1.32850000
H        0.28920000      -0.12800000      -1.94420000
H        1.68470000      -1.99400000      -2.04570000
H        1.40220000      -2.48590000      -0.35620000
H       -0.42230000      -3.63560000      -2.42940000
H       -2.09000000      -3.30480000      -0.76630000
H       -2.07020000      -1.30910000      -2.02390000
