18
Properties=species:S:1:pos:R:3 gdb_95467=T pbc="F F F"
C        0.12580000       1.55330000      -0.06860000
C       -0.01780000       0.03650000       0.07670000
O        0.45450000      -0.60590000      -1.10020000
C        1.42150000      -1.60910000      -0.77680000
C        1.62700000      -1.50930000       0.70550000
C        0.80470000      -0.57860000       1.18990000
N        0.60670000      -0.14670000       2.50110000
C        1.24740000      -0.62140000       3.61680000
O        2.08850000      -1.48990000       3.62440000
H        1.17940000       1.83140000      -0.16090000
H       -0.40450000       1.88630000      -0.96460000
H       -0.30510000       2.08320000       0.78930000
H       -1.08790000      -0.20260000       0.21880000
H        1.04590000      -2.59950000      -1.08100000
H        2.34030000      -1.42270000      -1.35300000
H        2.31890000      -2.11080000       1.27210000
H       -0.07050000       0.58600000       2.64800000
H        0.89650000      -0.10410000       4.53070000
