14
Properties=species:S:1:pos:R:3 gdb_11196=T pbc="F F F"
O       -0.08060000      -0.01080000       0.00050000
C       -0.00230000       1.19720000       0.00970000
C        1.26290000       1.93780000       0.00160000
C        1.34710000       3.27890000       0.01150000
C        2.76290000       3.76860000      -0.00050000
C        3.59110000       2.46540000      -0.01990000
O        4.78970000       2.40110000      -0.03570000
C        2.61570000       1.27740000      -0.01900000
H       -0.91260000       1.83740000       0.02480000
H        0.48830000       3.94210000       0.02630000
H        3.00420000       4.38730000      -0.87460000
H        3.02380000       4.37330000       0.87760000
H        2.79490000       0.63190000       0.84870000
H        2.77530000       0.64630000      -0.90090000
