21
Properties=species:S:1:pos:R:3 gdb_63815=T pbc="F F F"
C       -0.19350000       1.60320000       0.00230000
C        0.00100000       0.08940000       0.01020000
C       -1.33110000      -0.62640000      -0.23300000
C        1.13510000      -0.48540000      -0.91990000
C        1.76350000      -1.23220000       0.29210000
C        2.89480000      -0.49680000       1.05440000
O        2.66470000       0.90980000       0.93630000
C        1.91700000       0.18620000       1.92400000
C        0.73240000      -0.54730000       1.24410000
H        0.75240000       2.12690000       0.14740000
H       -0.62410000       1.92990000      -0.95200000
H       -0.88570000       1.91190000       0.79520000
H       -1.74310000      -0.35640000      -1.21210000
H       -1.21440000      -1.71570000      -0.20990000
H       -2.06970000      -0.35340000       0.52970000
H        0.76930000      -1.14100000      -1.71440000
H        1.78580000       0.27540000      -1.35400000
H        1.85590000      -2.31690000       0.24850000
H        3.91820000      -0.80930000       1.23170000
H        1.99430000       0.54730000       2.94390000
H        0.13040000      -1.13440000       1.94050000
