20
Properties=species:S:1:pos:R:3 gdb_6844=T pbc="F F F"
C        0.19360000       1.46050000      -0.02180000
O       -0.29730000       0.20010000      -0.42250000
C        0.61120000      -0.52710000      -1.20000000
C        1.74890000      -1.28320000      -0.47960000
O        1.32150000      -2.53550000      -1.04490000
C        0.11620000      -1.93850000      -1.61980000
C       -1.12820000      -2.42790000      -0.89070000
C        0.05350000      -2.19770000      -3.11740000
H        1.08480000       1.37230000       0.61760000
H        0.45240000       2.08810000      -0.88900000
H       -0.59900000       1.95140000       0.54770000
H        0.95970000       0.07770000      -2.05050000
H        2.77870000      -1.03390000      -0.76070000
H        1.65460000      -1.26340000       0.61490000
H       -1.06290000      -2.22380000       0.17940000
H       -2.02570000      -1.93420000      -1.27530000
H       -1.23220000      -3.50750000      -1.03800000
H       -0.07110000      -3.26740000      -3.31380000
H       -0.79290000      -1.66590000      -3.56540000
H        0.97370000      -1.86700000      -3.60750000
