18
Properties=species:S:1:pos:R:3 gdb_73524=T pbc="F F F"
C       -0.09110000       1.56030000      -0.07080000
C       -0.02060000       0.02290000      -0.06500000
C       -1.40040000      -0.62080000       0.16840000
C       -1.41150000      -0.74110000       1.72900000
N        0.00480000      -0.94550000       2.14260000
C        0.68340000      -0.53780000       1.15230000
N        2.00970000      -0.70580000       0.77700000
C        1.94980000      -0.75720000      -0.63280000
N        0.85170000      -0.40360000      -1.18580000
H        0.90720000       1.99830000       0.01260000
H       -0.53510000       1.89760000      -1.01130000
H       -0.70160000       1.92930000       0.75850000
H       -2.23340000      -0.03440000      -0.22720000
H       -1.43140000      -1.61740000      -0.28230000
H       -1.82170000       0.16230000       2.19870000
H       -2.01050000      -1.58450000       2.08360000
H        2.64080000      -1.29180000       1.30320000
H        2.83250000      -1.07700000      -1.17820000
