21
Properties=species:S:1:pos:R:3 gdb_63491=T pbc="F F F"
C        0.02660000       1.48260000      -0.24790000
C       -0.02300000      -0.01560000      -0.00590000
C       -1.24410000      -0.68010000      -0.61650000
C        1.29330000      -0.77910000      -0.01470000
C        0.57060000      -0.53700000       1.29080000
O        1.09990000       0.44150000       2.15810000
C       -0.06450000      -1.69000000       2.06190000
C        0.96870000      -2.50170000       2.81320000
O        1.07840000      -3.69930000       2.75110000
H        0.87080000       1.94540000       0.26370000
H        0.10610000       1.69130000      -1.32080000
H       -0.88760000       1.96470000       0.11730000
H       -1.30820000      -0.43270000      -1.68220000
H       -1.21890000      -1.76960000      -0.54050000
H       -2.16750000      -0.32850000      -0.14180000
H        1.30470000      -1.78740000      -0.41750000
H        2.20450000      -0.21500000      -0.19070000
H        2.02860000       0.24150000       2.31120000
H       -0.75540000      -1.25800000       2.79940000
H       -0.62350000      -2.37110000       1.41920000
H        1.65410000      -1.89990000       3.45400000
