22
Properties=species:S:1:pos:R:3 gdb_102696=T pbc="F F F"
C       -0.28230000       1.43520000      -0.08560000
C        0.09780000      -0.04810000      -0.01210000
C        0.90760000      -0.58000000      -1.21210000
C        2.28270000       0.08950000      -1.28580000
O        2.95840000      -0.33860000      -2.47060000
C        1.01770000      -2.11380000      -1.12220000
N        1.50880000      -2.73020000      -2.34270000
C        0.89840000      -3.79000000      -2.92570000
O       -0.07410000      -4.37590000      -2.49160000
H        0.59000000       2.09390000      -0.03600000
H       -0.81680000       1.65990000      -1.01510000
H       -0.93860000       1.70500000       0.74730000
H        0.65420000      -0.24060000       0.91560000
H       -0.82000000      -0.64270000       0.06160000
H        0.36750000      -0.33470000      -2.13650000
H        2.17390000       1.18190000      -1.29460000
H        2.86400000      -0.18050000      -0.38880000
H        3.83480000       0.05640000      -2.48040000
H        1.66290000      -2.38020000      -0.27090000
H        0.03670000      -2.55550000      -0.93060000
H        2.28460000      -2.27660000      -2.80130000
H        1.39860000      -4.07760000      -3.87260000
