16
Properties=species:S:1:pos:R:3 gdb_46427=T pbc="F F F"
O        0.10520000       0.11340000       0.34770000
C        0.05630000       1.25420000       0.01370000
O       -1.00760000       1.93650000      -0.51220000
C       -0.25250000       3.19270000      -0.54520000
C        0.99160000       2.47090000       0.01030000
C        1.55090000       2.89200000       1.36740000
C        2.55460000       1.84920000       1.90540000
C        3.09360000       2.22900000       3.20840000
N        3.51040000       2.55070000       4.23690000
H       -0.18380000       3.57660000      -1.56420000
H       -0.71020000       3.93110000       0.11680000
H        1.79340000       2.35940000      -0.72620000
H        2.04290000       3.86610000       1.27980000
H        0.73430000       3.01100000       2.08760000
H        2.06840000       0.87120000       1.98520000
H        3.38940000       1.72960000       1.20480000
