25
Properties=species:S:1:pos:R:3 gdb_120548=T pbc="F F F"
C       -0.19050000       1.63730000      -0.74310000
C       -0.04410000       0.19720000      -0.24380000
C        0.80720000      -0.67850000      -1.17020000
C        0.95150000      -2.12260000      -0.68760000
C       -0.31010000      -3.01860000      -0.89420000
C        0.35240000      -3.61950000      -2.14780000
C        1.72310000      -3.05580000      -1.67010000
O        0.19660000      -5.00950000      -2.26120000
C        0.81910000      -5.54790000      -3.40470000
H        0.78630000       2.12450000      -0.83960000
H       -0.67190000       1.66850000      -1.72700000
H       -0.79590000       2.23910000      -0.05800000
H        0.40490000       0.19980000       0.75840000
H       -1.03860000      -0.25220000      -0.12710000
H        0.37500000      -0.66590000      -2.18130000
H        1.80810000      -0.23440000      -1.26620000
H        1.34140000      -2.12010000       0.33500000
H       -0.40340000      -3.78560000      -0.12130000
H       -1.27610000      -2.52320000      -1.02160000
H        0.01830000      -3.12680000      -3.07450000
H        2.36980000      -2.57570000      -2.40990000
H        2.28900000      -3.82980000      -1.14390000
H        0.41760000      -5.10780000      -4.33180000
H        1.90850000      -5.39080000      -3.39560000
H        0.62030000      -6.62250000      -3.41020000
