20
Properties=species:S:1:pos:R:3 gdb_93904=T pbc="F F F"
O        0.09790000       1.39780000      -0.11980000
C        0.04400000      -0.01350000       0.01260000
C        0.82970000      -0.49520000       1.24430000
C        0.06170000      -0.23530000       2.54500000
C       -1.22650000      -1.06600000       2.60500000
O       -2.03680000      -0.72750000       3.72270000
C       -2.02840000      -0.96970000       1.32080000
N       -2.29460000       0.40570000       0.85110000
C       -1.41670000      -0.48150000       0.05670000
H       -0.67720000       1.72730000       0.35690000
H        0.51380000      -0.42500000      -0.88810000
H        1.03150000      -1.57040000       1.14140000
H        1.79670000       0.01670000       1.25320000
H        0.67170000      -0.46970000       3.42200000
H       -0.19420000       0.82890000       2.61160000
H       -0.96230000      -2.12040000       2.75610000
H       -2.34520000       0.17400000       3.57060000
H       -2.85010000      -1.67890000       1.24740000
H       -3.21460000       0.47140000       0.42710000
H       -1.82610000      -0.86160000      -0.87540000
