14
Properties=species:S:1:pos:R:3 gdb_44716=T pbc="F F F"
O        0.03320000       0.05840000      -0.59110000
C        0.04700000       1.15670000      -0.14400000
O       -0.97210000       1.82830000       0.49060000
C       -0.16270000       3.04010000       0.67040000
C        0.21340000       3.30770000       2.11720000
C        1.57040000       2.61360000       2.32120000
O        2.17360000       2.48080000       3.35660000
N        1.99890000       2.18300000       1.08130000
C        1.04690000       2.32690000       0.01340000
H       -0.61600000       3.87140000       0.13280000
H        0.32160000       4.37590000       2.32560000
H       -0.52400000       2.90440000       2.81450000
H        2.83080000       1.61830000       1.00350000
H        1.47390000       2.71970000      -0.91110000
