18
Properties=species:S:1:pos:R:3 gdb_122039=T pbc="F F F"
C        0.03110000       1.46000000      -0.01750000
C        0.11510000      -0.05580000      -0.00880000
O        0.72680000      -0.47790000      -1.21750000
C        0.85860000      -1.87090000      -1.31570000
C        1.45950000      -2.17710000      -2.69300000
C        1.86980000      -3.65110000      -2.84380000
O        1.93000000      -4.41360000      -1.91970000
C        0.57610000      -1.79710000      -3.79570000
N       -0.11960000      -1.54830000      -4.68380000
H        1.02960000       1.90020000      -0.08780000
H       -0.55820000       1.80550000      -0.87120000
H       -0.44260000       1.81800000       0.90110000
H        0.70360000      -0.41070000       0.85310000
H       -0.88880000      -0.50220000       0.07720000
H        1.52820000      -2.27710000      -0.54440000
H       -0.11220000      -2.37940000      -1.21120000
H        2.38380000      -1.58800000      -2.79860000
H        2.12570000      -3.95330000      -3.87990000
