19
Properties=species:S:1:pos:R:3 gdb_93067=T pbc="F F F"
C        0.02540000       1.49470000       0.12060000
C       -0.08270000      -0.01320000      -0.07490000
C        0.62860000      -0.48890000      -1.34770000
C        0.30610000      -1.92060000      -1.69060000
C        0.65550000      -2.92150000      -0.88880000
C        1.45180000      -2.70460000       0.37460000
C        0.81900000      -1.83270000       1.45800000
O        0.78210000      -2.18980000       2.60480000
O        0.40290000      -0.57530000       1.16930000
H        1.07450000       1.80430000       0.15950000
H       -0.46370000       2.02120000      -0.70420000
H       -0.45370000       1.78780000       1.05740000
H       -1.14070000      -0.29720000      -0.14690000
H        0.31750000       0.17600000      -2.15910000
H        1.71160000      -0.34310000      -1.22520000
H       -0.25250000      -2.11680000      -2.60100000
H        0.39110000      -3.94540000      -1.13420000
H        1.68100000      -3.64950000       0.86660000
H        2.41410000      -2.23240000       0.12480000
