21
Properties=species:S:1:pos:R:3 gdb_103743=T pbc="F F F"
C       -0.21930000       1.79700000       0.31980000
C       -0.14370000       0.29750000       0.08580000
C       -1.41950000      -0.23410000      -0.57000000
O       -1.33710000      -1.53460000      -1.13420000
C        1.20390000      -0.29890000      -0.29520000
C        0.62540000      -0.51970000       1.08990000
O        1.19150000       0.20020000       2.15280000
C        0.20370000      -1.90160000       1.52680000
O        1.37660000      -2.50320000       2.09100000
H        0.64720000       2.15360000       0.87670000
H       -0.27210000       2.33340000      -0.63450000
H       -1.11360000       2.05720000       0.89870000
H       -2.22430000      -0.28460000       0.17280000
H       -1.73710000       0.49290000      -1.33400000
H       -0.75470000      -1.48360000      -1.89850000
H        1.23250000      -1.14940000      -0.96880000
H        2.04760000       0.37790000      -0.37420000
H        1.80080000      -0.42120000       2.57310000
H       -0.58430000      -1.81460000       2.28990000
H       -0.18550000      -2.48010000       0.68430000
H        1.10470000      -3.26590000       2.60850000
