18
Properties=species:S:1:pos:R:3 gdb_124641=T pbc="F F F"
C        0.02950000       1.53810000      -0.14610000
C       -0.03740000       0.01180000       0.01340000
C       -1.47880000      -0.49910000       0.02320000
N        0.70330000      -0.70570000      -1.03040000
C        2.07130000      -0.64220000      -1.10290000
N        2.73480000      -0.77610000      -2.22890000
O        4.06920000      -0.74590000      -1.87420000
N        4.22340000      -0.57300000      -0.53790000
C        3.02170000      -0.50720000      -0.03980000
H        1.06520000       1.89030000      -0.15940000
H       -0.44490000       1.84860000      -1.08380000
H       -0.48920000       2.03860000       0.67770000
H        0.42600000      -0.26240000       0.96910000
H       -1.97980000      -0.26360000      -0.92360000
H       -1.50780000      -1.58230000       0.16510000
H       -2.04960000      -0.02340000       0.82520000
H        0.26410000      -0.68550000      -1.94200000
H        2.86740000      -0.37420000       1.01890000
