18
Properties=species:S:1:pos:R:3 gdb_69860=T pbc="F F F"
C       -0.04860000       1.54600000       0.11570000
C        0.00750000       0.04970000       0.04050000
C       -0.89080000      -0.89190000       0.79310000
C        0.60250000      -0.96330000       1.01130000
C        1.32880000      -1.65960000      -0.16770000
N        0.33710000      -2.12750000      -1.15140000
C        0.74910000      -0.68650000      -1.13890000
C        1.33130000      -0.05970000      -2.26790000
C        1.81430000       0.49190000      -3.22400000
H        0.92570000       1.99500000      -0.10610000
H       -0.77070000       1.95380000      -0.60150000
H       -0.35150000       1.87000000       1.11640000
H       -1.43380000      -0.42170000       1.60810000
H       -1.41410000      -1.69680000       0.29370000
H        1.07250000      -0.78080000       1.96880000
H        2.33220000      -2.06400000      -0.13980000
H        0.84790000      -2.56470000      -1.91840000
H        2.24440000       0.97530000      -4.06570000
