16
Properties=species:S:1:pos:R:3 gdb_17647=T pbc="F F F"
N        0.06060000       1.24040000       0.09770000
C        0.01670000      -0.10980000       0.03910000
O        1.01290000      -0.81580000       0.03210000
C       -1.37780000      -0.76560000      -0.04910000
O       -1.18700000      -2.14450000      -0.21070000
C       -2.21350000      -0.47280000       1.19530000
C       -3.21160000      -1.46320000       1.65700000
N       -1.96680000      -1.23770000       2.41990000
H        0.95380000       1.68920000       0.22080000
H       -0.77220000       1.79730000       0.17540000
H       -1.89710000      -0.34510000      -0.92650000
H       -0.21770000      -2.25470000      -0.21050000
H       -2.41670000       0.58430000       1.36380000
H       -4.11940000      -1.12670000       2.14930000
H       -3.29690000      -2.38240000       1.08700000
H       -1.32130000      -1.99170000       2.18680000
