16
Properties=species:S:1:pos:R:3 gdb_49485=T pbc="F F F"
O       -0.51120000       0.61040000       0.29380000
C        0.39940000       0.90810000      -0.44620000
C        1.66810000       1.58380000      -0.06490000
C        1.69100000       2.77200000       0.84910000
C        0.67710000       2.66280000       1.98770000
C        1.43320000       1.35870000       2.36480000
C        0.74050000       0.02370000       2.52800000
O        1.21830000      -1.02180000       2.17550000
N        2.40850000       1.51030000       1.22480000
H        0.31950000       0.71810000      -1.53800000
H        2.38050000       1.63330000      -0.88400000
H        2.22570000       3.67100000       0.55990000
H        0.78360000       3.45690000       2.72800000
H       -0.37060000       2.56390000       1.70100000
H        2.01150000       1.50800000       3.28610000
H       -0.22510000       0.08060000       3.07830000
