20
Properties=species:S:1:pos:R:3 gdb_108625=T pbc="F F F"
C        0.21580000       1.52520000       0.17020000
C        0.09520000       0.04230000       0.01590000
C       -0.05950000      -0.69540000      -1.09230000
C       -0.12860000      -0.25060000      -2.51600000
O        0.91030000      -0.90910000      -3.24220000
C       -0.16260000      -2.16680000      -0.73760000
N       -0.00270000      -2.25500000       0.73040000
C        1.30780000      -1.81710000       1.21860000
C        0.15990000      -0.86370000       1.20470000
H        1.16200000       1.79170000       0.65730000
H        0.16650000       2.05040000      -0.78640000
H       -0.58510000       1.91770000       0.80960000
H       -1.11390000      -0.52080000      -2.93430000
H       -0.03400000       0.84250000      -2.58980000
H        0.76400000      -0.74610000      -4.17900000
H       -1.14270000      -2.57960000      -1.01830000
H        0.59410000      -2.77320000      -1.24760000
H        1.62050000      -2.28910000       2.14660000
H        2.10260000      -1.64150000       0.49590000
H       -0.33710000      -0.57960000       2.13020000
