22
Properties=species:S:1:pos:R:3 gdb_94042=T pbc="F F F"
C       -0.16350000       1.55190000       0.01440000
C        0.06060000       0.04130000       0.01620000
C        0.85270000      -0.48540000      -1.20790000
C        1.61760000      -1.74900000      -0.72330000
C        1.25650000      -1.91120000       0.77480000
C        2.37180000      -2.53400000       1.63360000
C        2.71000000      -3.89740000       1.22650000
N        2.96150000      -4.97490000       0.89260000
C        0.86230000      -0.49300000       1.21510000
H        0.79260000       2.08860000       0.01450000
H       -0.72120000       1.86870000      -0.87320000
H       -0.72910000       1.87600000       0.89450000
H       -0.92000000      -0.45430000       0.03030000
H        0.19390000      -0.69470000      -2.05520000
H        1.56000000       0.28040000      -1.54540000
H        1.36560000      -2.64470000      -1.29580000
H        2.69870000      -1.60660000      -0.83250000
H        0.37160000      -2.55400000       0.85870000
H        3.27830000      -1.91900000       1.57210000
H        2.07490000      -2.55520000       2.68880000
H        1.76490000       0.11890000       1.36100000
H        0.29970000      -0.47430000       2.15430000
