17
Properties=species:S:1:pos:R:3 gdb_85475=T pbc="F F F"
C        0.45200000       1.40210000      -0.37150000
C       -0.07190000       0.06940000       0.14530000
O       -0.07040000      -0.91390000      -0.90560000
C        0.99170000      -1.77180000      -0.79910000
N        1.25620000      -2.69870000      -1.60990000
C        1.78790000      -1.43900000       0.44430000
C        0.78610000      -0.60000000       1.26340000
C        1.39060000       0.33390000       2.20360000
N        1.86760000       1.07660000       2.94950000
H        1.49940000       1.32980000      -0.67990000
H       -0.13880000       1.71350000      -1.23630000
H        0.37410000       2.17080000       0.40180000
H       -1.10990000       0.17480000       0.47120000
H        0.58340000      -2.71230000      -2.37820000
H        2.12850000      -2.33960000       0.95360000
H        2.67070000      -0.85150000       0.17510000
H        0.13710000      -1.27590000       1.83050000
