17
Properties=species:S:1:pos:R:3 gdb_34918=T pbc="F F F"
N        0.06210000      -1.17100000      -0.06380000
C        0.03010000      -0.01650000      -0.01960000
C       -0.01920000       1.44610000       0.01910000
C       -0.71690000       2.02400000       1.26800000
C       -0.13100000       1.79770000       2.63580000
C        0.19660000       3.06600000       1.88740000
C        1.47870000       3.07880000       1.07980000
N        2.23110000       1.80810000       1.11170000
C        1.36970000       2.10510000      -0.03860000
H       -0.57810000       1.77710000      -0.86460000
H       -1.78570000       2.18430000       1.18800000
H       -0.81880000       1.87350000       3.47060000
H        0.66250000       1.07020000       2.75030000
H       -0.18870000       4.01700000       2.23470000
H        2.02290000       4.01030000       0.97060000
H        3.20430000       1.96110000       0.86200000
H        1.81970000       2.26260000      -1.01320000
