14
Properties=species:S:1:pos:R:3 gdb_11158=T pbc="F F F"
O       -0.07790000      -0.04680000       0.00520000
C       -0.03740000       1.16180000       0.00970000
C       -1.25200000       2.10640000       0.03160000
C       -0.66840000       3.52930000       0.03020000
C        0.84000000       3.31700000       0.00750000
C        1.17150000       2.01000000      -0.00330000
C        1.73110000       4.41220000       0.00040000
C        2.45330000       5.37710000      -0.00560000
H       -1.88150000       1.90150000      -0.83890000
H       -1.85670000       1.89300000       0.91760000
H       -0.97820000       4.11950000      -0.83880000
H       -0.95300000       4.11080000       0.91360000
H        2.17400000       1.60430000      -0.01930000
H        3.10530000       6.21560000      -0.01230000
