21
Properties=species:S:1:pos:R:3 gdb_80862=T pbc="F F F"
C       -0.12960000       1.57720000      -0.00880000
C        0.01260000       0.06050000      -0.01930000
C        1.15800000      -0.59950000      -0.83810000
C        2.12990000      -0.25040000       0.31180000
C        0.83890000      -0.59040000       1.13560000
O        0.60270000      -0.18910000       2.44580000
C        0.71000000      -2.09360000       0.78100000
C       -0.59230000      -2.78710000       1.13970000
O        0.91380000      -2.00940000      -0.65070000
H        0.81850000       2.10370000       0.12300000
H       -0.57510000       1.92430000      -0.94710000
H       -0.78990000       1.88530000       0.80800000
H       -0.96320000      -0.39590000      -0.20490000
H        1.35320000      -0.39200000      -1.88830000
H        3.00370000      -0.89640000       0.43010000
H        2.41300000       0.79950000       0.36320000
H        1.23760000      -0.62760000       3.02320000
H        1.54570000      -2.65780000       1.22520000
H       -1.46300000      -2.25610000       0.74740000
H       -0.60140000      -3.80220000       0.73220000
H       -0.69080000      -2.85210000       2.22840000
