18
Properties=species:S:1:pos:R:3 gdb_9927=T pbc="F F F"
C       -0.05400000       1.55570000       0.12120000
C        0.03980000       0.05300000      -0.02480000
C        0.68560000      -0.62660000      -1.20160000
C        1.30710000       0.12340000      -2.35900000
C        1.37800000      -0.67110000       0.16590000
N        2.55650000       0.13970000       0.34420000
C        1.34830000      -1.93170000       0.87760000
N        1.35860000      -2.93210000       1.46100000
H        0.86910000       2.05270000      -0.17860000
H       -0.87320000       1.94640000      -0.49190000
H       -0.26130000       1.82970000       1.16110000
H       -0.80590000      -0.48420000       0.39490000
H        0.22500000      -1.56910000      -1.48370000
H        1.88140000       0.98740000      -2.02330000
H        1.98060000      -0.52950000      -2.92410000
H        0.52960000       0.47020000      -3.04800000
H        2.68410000       0.37290000       1.32420000
H        3.38550000      -0.36530000       0.04600000
