14
Properties=species:S:1:pos:R:3 gdb_27277=T pbc="F F F"
O        0.07790000       1.35670000       0.20510000
C        0.09810000       0.01500000      -0.00690000
C        0.22640000      -0.79550000      -1.09470000
O        0.54140000      -0.75120000      -2.43730000
C        0.29300000      -2.10220000      -2.85310000
O        0.41320000      -2.96760000      -1.71360000
C        0.15810000      -2.13120000      -0.65640000
C       -0.02460000      -2.16970000       0.69090000
N       -0.01950000      -0.81870000       1.09090000
H        0.07740000       1.79750000      -0.65020000
H       -0.73090000      -2.17580000      -3.25200000
H        1.03420000      -2.38920000      -3.60140000
H       -0.09970000      -2.96530000       1.40960000
H       -0.46520000      -0.49740000       1.93500000
