18
Properties=species:S:1:pos:R:3 gdb_56348=T pbc="F F F"
N        0.03590000       1.33580000      -0.56220000
C        0.02250000       0.07470000      -0.00080000
N        1.00800000      -0.69100000       0.26070000
C        2.34260000      -0.20920000       0.00670000
C        3.50400000      -1.17350000       0.34860000
C        4.22880000      -0.70670000      -0.94250000
C        2.87040000      -0.17180000      -1.46780000
C       -1.31570000      -0.42350000       0.26750000
N       -2.39270000      -0.78430000       0.48100000
H        0.91500000       1.82740000      -0.57760000
H       -0.78290000       1.91210000      -0.45030000
H        2.51040000       0.76920000       0.48830000
H        4.01150000      -1.03930000       1.30640000
H        3.15690000      -2.20690000       0.27070000
H        4.93690000       0.10360000      -0.74700000
H        4.73170000      -1.46770000      -1.54180000
H        2.34510000      -0.91720000      -2.07080000
H        2.85770000       0.78380000      -1.99870000
