18
Properties=species:S:1:pos:R:3 gdb_106215=T pbc="F F F"
O       -0.01370000       1.34500000       0.18650000
C        0.05410000      -0.04460000      -0.08870000
C       -1.34020000      -0.62420000      -0.12150000
C       -2.30120000      -0.08820000      -1.17090000
C       -3.47320000      -0.61450000      -0.82050000
C       -3.12220000      -1.41650000       0.41120000
C       -1.73920000      -2.10910000       0.19550000
C       -1.46680000      -1.81230000       1.67340000
N       -2.14640000      -0.51320000       1.23280000
H       -0.64270000       1.44470000       0.91280000
H        0.52590000      -0.15150000      -1.07220000
H        0.69530000      -0.56750000       0.63570000
H       -2.04170000       0.59110000      -1.96970000
H       -4.45430000      -0.49980000      -1.25780000
H       -3.90020000      -1.90490000       0.99920000
H       -1.51850000      -3.00640000      -0.39660000
H       -2.04720000      -2.36650000       2.41620000
H       -0.43610000      -1.69140000       2.01090000
