16
Properties=species:S:1:pos:R:3 gdb_861=T pbc="F F F"
C        0.03030000       1.49230000       0.08270000
C        0.00280000       0.00580000      -0.05300000
C       -0.09600000      -0.80340000      -1.16120000
C       -0.07510000      -2.15750000      -0.71710000
C        0.03610000      -2.15020000       0.65420000
C        0.10390000      -3.26610000       1.64350000
N        0.08220000      -0.82810000       1.04180000
H        0.95820000       1.85220000       0.54600000
H       -0.04440000       1.95540000      -0.90390000
H       -0.80280000       1.87180000       0.68860000
H       -0.17480000      -0.45680000      -2.18090000
H       -0.13480000      -3.04260000      -1.33280000
H        1.03720000      -3.25570000       2.22150000
H       -0.72390000      -3.23630000       2.36400000
H        0.05120000      -4.22540000       1.12350000
H        0.16290000      -0.51450000       1.99400000
