16
Properties=species:S:1:pos:R:3 gdb_14360=T pbc="F F F"
C       -0.04730000       1.58270000       0.05550000
C        1.43890000       1.23480000       0.08000000
O        1.11150000       0.05040000       0.95690000
C        0.12750000       0.04970000      -0.15720000
C       -0.89590000      -0.86020000      -0.79580000
C       -0.67670000      -0.37860000      -2.24540000
C        0.45930000       0.31750000      -2.43610000
C        1.25930000       0.28340000      -1.15720000
H       -0.46960000       1.86180000       1.02120000
H       -0.42980000       2.17710000      -0.77550000
H        2.30160000       1.82280000       0.39510000
H       -0.65250000      -1.92560000      -0.69150000
H       -1.92240000      -0.71070000      -0.44680000
H       -1.39590000      -0.60820000      -3.02490000
H        0.78510000       0.70820000      -3.39350000
H        2.02560000      -0.49880000      -1.15690000
