20
Properties=species:S:1:pos:R:3 gdb_47092=T pbc="F F F"
O        0.14940000       0.05980000       0.30540000
C        0.02150000       1.24100000       0.05790000
C       -1.27980000       2.05210000      -0.02730000
C       -0.82750000       3.50080000       0.24870000
C        0.63960000       3.52590000      -0.23290000
C        1.71540000       4.20430000       0.62860000
C        2.97420000       3.36380000       0.32340000
C        2.44510000       1.92000000       0.13560000
N        1.03890000       2.11880000      -0.19320000
H       -1.70250000       1.94000000      -1.03260000
H       -2.01310000       1.66490000       0.68190000
H       -1.44420000       4.25310000      -0.24780000
H       -0.86160000       3.70160000       1.32510000
H        0.69730000       3.91060000      -1.26310000
H        1.84670000       5.26530000       0.40220000
H        1.44440000       4.11410000       1.68720000
H        3.43870000       3.71290000      -0.60470000
H        3.73030000       3.42790000       1.10920000
H        2.97910000       1.38610000      -0.65740000
H        2.52220000       1.31390000       1.04540000
