20
Properties=species:S:1:pos:R:3 gdb_82870=T pbc="F F F"
C        0.11470000       1.59200000      -0.11900000
C        0.03750000       0.08750000      -0.07880000
C        0.40470000      -0.83530000      -1.24000000
N       -0.35180000      -1.93270000      -0.52240000
C        0.57330000      -2.11000000       0.64950000
C        0.40830000      -0.71150000       1.26520000
C       -1.11370000      -0.79700000       1.58770000
O       -1.72370000       0.37210000       2.09400000
C       -1.24210000      -0.80260000       0.06460000
H        1.15910000       1.92790000      -0.11480000
H       -0.35230000       1.98300000      -1.03030000
H       -0.39360000       2.03570000       0.73930000
H       -0.12240000      -0.55900000      -2.15920000
H        1.44910000      -1.07070000      -1.47390000
H        0.22800000      -2.91560000       1.30440000
H        1.58000000      -2.35470000       0.30320000
H        1.13350000      -0.33980000       1.99050000
H       -1.44200000      -1.68690000       2.14420000
H       -1.41840000       0.49460000       2.99860000
H       -2.18070000      -0.65950000      -0.46830000
