22
Properties=species:S:1:pos:R:3 gdb_86908=T pbc="F F F"
C        0.46280000       1.35170000      -0.78630000
C        0.06390000      -0.00500000      -0.24410000
C        0.66680000      -1.27640000      -0.88040000
C        1.11630000      -1.61010000       0.55840000
C        2.58700000      -1.85850000       0.85550000
N        2.95630000      -3.22920000       0.52840000
C        3.52770000      -3.46470000      -0.79490000
C        4.38130000      -3.51290000       0.42350000
O        0.69810000      -0.30670000       1.02540000
H        1.54820000       1.41640000      -0.91110000
H       -0.01300000       1.53080000      -1.75690000
H        0.14840000       2.14510000      -0.10080000
H       -1.02970000      -0.06230000      -0.14110000
H       -0.02700000      -1.97100000      -1.35540000
H        1.49480000      -1.06670000      -1.56290000
H        0.52140000      -2.40860000       1.02220000
H        3.20360000      -1.10840000       0.32710000
H        2.74270000      -1.70660000       1.93070000
H        3.21590000      -4.37940000      -1.29080000
H        3.66030000      -2.60980000      -1.45620000
H        5.07840000      -2.68950000       0.57270000
H        4.70560000      -4.46420000       0.83590000
