20
Properties=species:S:1:pos:R:3 gdb_30304=T pbc="F F F"
C       -0.05730000       1.59030000      -0.00850000
C        0.01370000       0.05990000       0.05390000
C        0.74870000      -0.58070000      -1.17270000
C        1.53360000      -1.83320000      -0.66480000
C        1.66380000      -1.54470000       0.80550000
C        0.83370000      -0.51690000       1.16700000
N        0.92840000      -0.33290000       2.51980000
C        1.83730000      -1.24330000       3.02330000
C        2.30830000      -2.01690000       1.98200000
H        0.94700000       2.02530000      -0.04780000
H       -0.60660000       1.92010000      -0.89680000
H       -0.57130000       2.00610000       0.86590000
H       -1.01800000      -0.32330000       0.10280000
H        0.05660000      -0.81700000      -1.98610000
H        1.46370000       0.15310000      -1.56150000
H        0.96790000      -2.75690000      -0.84930000
H        2.48920000      -1.94650000      -1.18890000
H        0.45290000       0.36560000       3.06340000
H        2.08120000      -1.25250000       4.07400000
H        3.03010000      -2.81450000       2.07400000
