21
Properties=species:S:1:pos:R:3 gdb_110579=T pbc="F F F"
C        0.06530000       1.61180000       0.11260000
C       -0.18690000       0.11170000      -0.08070000
C        0.58600000      -0.47830000      -1.25370000
C        2.09320000      -0.80880000      -1.10790000
C        1.84530000      -2.14950000      -0.33560000
C        2.73100000      -2.95940000      -1.30420000
C        2.03120000      -1.92520000      -2.20840000
C        0.69550000      -2.01240000      -1.41390000
O       -0.29160000      -2.93310000      -1.71480000
H        1.12340000       1.81290000       0.31100000
H       -0.21550000       2.17670000      -0.78310000
H       -0.51300000       2.00960000       0.95240000
H        0.07240000      -0.42430000       0.84160000
H       -1.26120000      -0.05460000      -0.24120000
H        0.33680000       0.04490000      -2.18750000
H        2.93110000      -0.13350000      -0.94530000
H        1.72710000      -2.26410000       0.74280000
H        3.81370000      -2.85520000      -1.18340000
H        2.45730000      -4.00660000      -1.45920000
H        2.11770000      -1.76190000      -3.28370000
H       -0.92530000      -2.94990000      -0.98950000
