17
Properties=species:S:1:pos:R:3 gdb_52540=T pbc="F F F"
C       -0.56010000       0.95420000      -0.66390000
C       -0.14600000      -0.31640000      -0.09710000
C        0.18640000      -1.37690000       0.37490000
C        0.59180000      -2.64370000       0.93050000
O        0.02740000      -3.15390000       1.87740000
C        1.76140000      -3.33430000       0.22420000
C        1.22590000      -4.45810000      -0.68570000
C        0.78160000      -5.71830000       0.02360000
O        1.17400000      -4.31280000      -1.88180000
H        0.29870000       1.51930000      -1.04090000
H       -1.24460000       0.78940000      -1.50340000
H       -1.08040000       1.56900000       0.07750000
H        2.32190000      -2.63120000      -0.39170000
H        2.39880000      -3.76590000       1.00190000
H        1.66760000      -6.25420000       0.38620000
H        0.18050000      -5.46980000       0.90320000
H        0.23010000      -6.36130000      -0.66310000
