20
Properties=species:S:1:pos:R:3 gdb_116767=T pbc="F F F"
C        0.28890000       0.78640000      -0.59960000
C       -0.34070000       0.12520000       0.63070000
N       -1.48290000      -0.75490000       0.44790000
C       -1.96130000      -0.96350000      -0.69170000
O       -3.04840000      -1.76490000      -0.83190000
C       -3.46010000      -2.07420000      -2.15990000
C       -2.80750000      -3.34520000      -2.69050000
C       -4.98380000      -2.16600000      -2.12140000
O       -5.63650000      -2.77480000      -2.92600000
H        1.13210000       1.40970000      -0.28780000
H        0.67040000       0.04610000      -1.31120000
H       -0.42210000       1.43180000      -1.12670000
H        0.42510000      -0.45640000       1.16060000
H       -0.65010000       0.90310000       1.34130000
H       -1.60160000      -0.54660000      -1.64170000
H       -3.22590000      -1.22510000      -2.82510000
H       -3.26170000      -3.61480000      -3.64670000
H       -1.73290000      -3.20130000      -2.82920000
H       -2.96220000      -4.16700000      -1.98640000
H       -5.44050000      -1.59930000      -1.28170000
