17
Properties=species:S:1:pos:R:3 gdb_92394=T pbc="F F F"
C        0.28270000       1.51810000      -0.04460000
C        0.06480000       0.02960000       0.08580000
O        0.85000000      -0.76530000      -0.85170000
C        1.39030000      -1.58520000       0.19010000
C        2.70370000      -1.04230000       0.75850000
O        1.98780000      -0.16990000       1.67480000
C        0.70640000      -0.72130000       1.28810000
C       -0.11650000      -1.14940000       2.38570000
C       -0.82830000      -1.50410000       3.28750000
H        1.31780000       1.77730000       0.18680000
H        0.05120000       1.83830000      -1.06490000
H       -0.37750000       2.05740000       0.64240000
H       -0.99680000      -0.23170000      -0.01430000
H        1.25780000      -2.65500000       0.02360000
H        3.30850000      -1.77450000       1.30770000
H        3.32460000      -0.48940000       0.04730000
H       -1.44990000      -1.81830000       4.08960000
