13
Properties=species:S:1:pos:R:3 gdb_125345=T pbc="F F F"
C       -0.02330000       1.49810000       0.03530000
C       -0.00040000       0.00020000      -0.01060000
C        0.07050000      -0.72050000      -1.21530000
N        0.08960000      -2.04020000      -1.23100000
C        0.03630000      -2.60930000      -0.01690000
N       -0.03190000      -1.98080000       1.15820000
N       -0.05020000      -0.65410000       1.15400000
C        0.05370000      -4.05050000       0.03680000
N        0.06810000      -5.20530000       0.07160000
H        0.87930000       1.91750000      -0.42210000
H       -0.88170000       1.89370000      -0.51800000
H       -0.08400000       1.83170000       1.07180000
H        0.11170000      -0.20990000      -2.17510000
