16
Properties=species:S:1:pos:R:3 gdb_49483=T pbc="F F F"
O       -0.49460000       0.49290000       0.68970000
C        0.05340000       1.16310000      -0.15360000
C        1.30020000       1.96380000       0.01380000
C        1.58310000       2.86030000       1.17650000
C        1.05190000       2.32050000       2.51010000
C        1.91770000       1.06100000       2.19170000
N        2.44760000       1.66390000       0.91320000
C        1.56610000       3.08960000       3.70030000
O        0.88690000       3.46360000       4.62000000
H       -0.37100000       1.23970000      -1.17920000
H        1.67180000       2.35440000      -0.93070000
H        1.92810000       3.87550000       1.00090000
H       -0.02500000       2.17740000       2.59440000
H        2.75950000       0.92810000       2.87500000
H        1.37470000       0.12620000       2.07360000
H        2.66450000       3.28610000       3.67650000
