17
Properties=species:S:1:pos:R:3 gdb_51371=T pbc="F F F"
O        0.24240000       0.50990000       1.79760000
C        0.05780000       1.39540000       0.99270000
N        1.03690000       1.97490000       0.23730000
C        2.36940000       1.43450000       0.20890000
C        3.47900000       1.87440000      -0.68230000
C        3.77990000       3.38800000      -0.63840000
C        2.98820000       4.21360000       0.30740000
N        4.07420000       3.36410000       0.83320000
C        3.66430000       1.91070000       0.83640000
H       -0.93710000       1.83820000       0.78740000
H        0.75330000       2.58360000      -0.51480000
H        2.33690000       0.35080000       0.31110000
H        3.93470000       1.22900000      -1.42280000
H        4.49170000       3.83190000      -1.32670000
H        3.25570000       5.26660000       0.34920000
H        1.96210000       3.99820000       0.56490000
H        4.22350000       1.25800000       1.49470000
