17
Properties=species:S:1:pos:R:3 gdb_24248=T pbc="F F F"
C       -0.03850000       1.46440000       0.09110000
C        1.28870000       0.75260000       0.04170000
C        2.03050000       0.41930000       1.35510000
C        1.05370000      -0.50660000       2.03100000
C       -0.02390000      -0.77530000       1.23650000
N       -0.84360000      -1.58150000       1.98670000
C       -0.20160000      -1.76200000       3.19130000
N        0.94440000      -1.11440000       3.25480000
C       -0.02240000      -0.04820000      -0.04620000
H       -0.37990000       1.87900000       1.03430000
H       -0.31630000       2.04370000      -0.78410000
H        1.88340000       0.88590000      -0.85420000
H        2.99510000      -0.06150000       1.15010000
H        2.24470000       1.32040000       1.94140000
H       -1.73010000      -1.97650000       1.72250000
H       -0.61720000      -2.38960000       3.96570000
H       -0.34680000      -0.50810000      -0.97320000
