18
Properties=species:S:1:pos:R:3 gdb_36785=T pbc="F F F"
N       -0.03640000      -1.05980000      -0.39450000
C       -0.00150000       0.08380000      -0.24190000
C        0.00250000       1.53670000      -0.04640000
O        1.32930000       1.99810000      -0.03120000
C        1.41760000       3.40210000       0.15750000
C        2.88170000       3.78660000       0.12490000
C        3.54450000       3.74530000      -1.26860000
O        3.61240000       5.18710000      -1.32500000
C        3.14910000       5.30530000       0.03370000
H       -0.58100000       2.00200000      -0.85800000
H       -0.51820000       1.76480000       0.89830000
H        0.86660000       3.92930000      -0.63970000
H        0.96120000       3.68770000       1.12020000
H        3.42050000       3.25720000       0.91290000
H        4.54070000       3.28710000      -1.29410000
H        2.93740000       3.32450000      -2.07850000
H        2.27180000       5.96050000       0.11700000
H        3.93200000       5.67680000       0.70700000
