22
Properties=species:S:1:pos:R:3 gdb_117692=T pbc="F F F"
C       -0.08320000       1.62190000       0.18320000
C        0.01260000       0.10320000       0.01200000
C       -1.36370000      -0.56310000      -0.09530000
C       -1.34410000      -2.10750000      -0.08710000
C       -0.53470000      -2.69540000      -1.24430000
O       -0.72620000      -2.59950000       1.09850000
C       -2.81950000      -2.60370000      -0.14970000
C       -2.95070000      -4.05520000      -0.05410000
N       -3.06410000      -5.20310000       0.01330000
H        0.91030000       2.07480000       0.25480000
H       -0.60040000       2.08740000      -0.66330000
H       -0.63530000       1.88660000       1.09210000
H        0.60370000      -0.12190000      -0.88300000
H        0.55310000      -0.33800000       0.85640000
H       -1.98660000      -0.22950000       0.74900000
H       -1.87690000      -0.21460000      -1.00140000
H        0.51600000      -2.41580000      -1.14980000
H       -0.59620000      -3.78630000      -1.23190000
H       -0.90960000      -2.33250000      -2.20590000
H       -1.18890000      -2.23460000       1.86140000
H       -3.39120000      -2.14990000       0.66950000
H       -3.28890000      -2.26870000      -1.08150000
