18
Properties=species:S:1:pos:R:3 gdb_47939=T pbc="F F F"
O        0.00820000       0.01840000      -0.06520000
C       -0.02470000       1.23110000       0.00430000
C       -1.36880000       1.98580000      -0.02360000
O       -1.76870000       2.38810000      -1.32540000
C       -1.13520000       3.51130000      -1.86110000
O        0.19610000       3.25990000      -2.24320000
C        1.22310000       3.85570000      -1.47580000
C        1.24270000       3.40410000      -0.00450000
N        1.11950000       1.97180000       0.16870000
H       -2.11530000       1.26250000       0.30620000
H       -1.37880000       2.84260000       0.66680000
H       -1.69960000       3.74290000      -2.76890000
H       -1.18300000       4.36660000      -1.16430000
H        2.15250000       3.55690000      -1.97080000
H        1.16390000       4.95530000      -1.51040000
H        2.18100000       3.73590000       0.45240000
H        0.44380000       3.90190000       0.55170000
H        1.95850000       1.41430000       0.08170000
