20
Properties=species:S:1:pos:R:3 gdb_90595=T pbc="F F F"
C       -0.20880000       1.55340000      -0.00590000
C        0.02920000       0.05110000       0.01000000
C        1.12570000      -0.53940000      -0.93390000
C        1.77820000      -1.27710000       0.27590000
C        0.75050000      -0.59720000       1.23720000
N        1.87590000       0.14820000       1.80280000
C        1.97680000       1.17930000       2.80560000
C        2.83960000      -0.42410000       0.99910000
O        4.02850000      -0.24680000       0.92360000
H        0.72420000       2.10380000       0.15190000
H       -0.61670000       1.87030000      -0.97190000
H       -0.92030000       1.85710000       0.77010000
H       -0.91820000      -0.47550000      -0.14940000
H        0.73590000      -1.20680000      -1.70470000
H        1.77880000       0.19440000      -1.41330000
H        1.93920000      -2.35130000       0.21910000
H        0.14590000      -1.13410000       1.97200000
H        1.60640000       0.82830000       3.77640000
H        3.03500000       1.43400000       2.90490000
H        1.42110000       2.08220000       2.52850000
