20
Properties=species:S:1:pos:R:3 gdb_9777=T pbc="F F F"
O       -0.13180000       1.44000000       0.11850000
C       -0.01560000       0.01990000       0.04160000
C       -1.43440000      -0.53470000      -0.03580000
O       -2.15910000      -0.08020000       1.10970000
C       -2.19050000      -0.14440000      -1.32670000
C       -3.30970000      -1.19080000      -1.39700000
C       -2.58620000      -2.50140000      -1.02830000
C       -1.48320000      -2.08160000      -0.01900000
H        0.70870000       1.80380000       0.40930000
H        0.56470000      -0.28480000      -0.84230000
H        0.47930000      -0.38170000       0.93770000
H       -1.96400000       0.86370000       1.17570000
H       -2.54160000       0.88980000      -1.29620000
H       -1.52330000      -0.24540000      -2.19310000
H       -4.06720000      -0.95380000      -0.64290000
H       -3.80610000      -1.23440000      -2.37040000
H       -3.26190000      -3.25610000      -0.61760000
H       -2.13030000      -2.93770000      -1.92420000
H       -0.51150000      -2.50780000      -0.28920000
H       -1.70720000      -2.40130000       1.00110000
