14
Properties=species:S:1:pos:R:3 gdb_24207=T pbc="F F F"
C       -0.04460000       1.58630000      -0.06480000
C        1.49760000       1.31500000       0.00360000
O        1.17490000       0.18090000       0.88780000
C       -0.01340000       0.02190000       0.01140000
C        0.67320000      -0.32310000      -1.31150000
C        1.69330000       0.55610000      -1.30460000
O        2.42400000       0.40530000      -2.42860000
C        1.75850000      -0.61500000      -3.07690000
N        0.71050000      -1.08280000      -2.46100000
H       -0.42070000       2.04200000       0.85410000
H       -0.45640000       2.06010000      -0.95830000
H        2.23270000       2.01360000       0.39450000
H       -0.80990000      -0.58510000       0.43320000
H        2.17780000      -0.92490000      -4.02030000
