13
Properties=species:S:1:pos:R:3 gdb_133548=T pbc="F F F"
F       -0.29910000       0.06420000      -0.13790000
C       -0.05070000       1.38290000       0.02240000
F        1.27270000       1.52620000       0.12230000
F       -0.45680000       2.00720000      -1.08260000
C       -0.75870000       1.90670000       1.25540000
C       -2.10560000       1.33350000       1.57350000
N       -0.95710000       1.00690000       2.40620000
C       -0.48320000       3.33130000       1.63580000
O        0.08630000       4.12830000       0.94020000
H       -2.85120000       1.97190000       2.03850000
H       -2.49060000       0.59190000       0.88080000
H       -0.60290000       0.08160000       2.17450000
H       -0.87280000       3.58040000       2.64630000
