18
Properties=species:S:1:pos:R:3 gdb_6299=T pbc="F F F"
C       -0.12710000       1.65340000       0.02520000
C       -0.03910000       0.11360000       0.03300000
C        0.77900000      -0.40940000       1.23150000
C        2.27630000      -0.14340000       1.11880000
C        3.09780000      -0.42880000       2.36270000
O        2.78330000       0.25760000       0.09560000
C       -1.37000000      -0.49050000       0.02450000
C       -2.46830000      -0.97980000       0.03940000
H        0.87530000       2.08400000      -0.02400000
H       -0.69690000       2.00080000      -0.84010000
H       -0.63000000       2.01630000       0.92730000
H        0.49410000      -0.19420000      -0.87460000
H        0.40150000       0.00860000       2.17340000
H        0.65410000      -1.49640000       1.32720000
H        2.87440000      -1.42440000       2.76080000
H        4.16080000      -0.34660000       2.13340000
H        2.83960000       0.29160000       3.14780000
H       -3.43700000      -1.41440000       0.03450000
