15
Properties=species:S:1:pos:R:3 gdb_15507=T pbc="F F F"
N        0.07940000       1.31230000       0.12450000
C       -0.03380000       0.04930000       0.10030000
N       -1.23440000      -0.63540000      -0.00870000
C       -1.26320000      -2.08810000      -0.15480000
C       -2.75160000      -2.41690000       0.05940000
N       -3.37380000      -1.17400000      -0.36290000
C       -2.52600000      -0.08550000      -0.18010000
O       -2.84290000       1.07360000      -0.18410000
H        1.06160000       1.56230000       0.22690000
H        0.80170000      -0.66050000       0.17470000
H       -0.93770000      -2.38920000      -1.15930000
H       -0.61920000      -2.57870000       0.57950000
H       -3.07300000      -3.26560000      -0.54960000
H       -2.95500000      -2.65000000       1.11460000
H       -4.34970000      -0.99650000      -0.18320000
