11
Properties=species:S:1:pos:R:3 gdb_3911=T pbc="F F F"
O        0.05450000      -0.04940000      -0.00070000
C        0.00800000       1.16310000       0.00880000
C        1.19480000       2.00740000       0.00290000
C        1.37820000       3.38470000       0.01140000
C        2.77200000       3.55570000      -0.00170000
N        3.41350000       2.38080000      -0.01750000
N        2.44390000       1.46800000      -0.01440000
H       -0.95530000       1.71250000       0.02330000
H        0.60940000       4.14030000       0.02520000
H        3.34060000       4.47330000      -0.00050000
H        2.65760000       0.48280000      -0.02420000
