19
Properties=species:S:1:pos:R:3 gdb_15380=T pbc="F F F"
C        0.00750000       1.53700000      -0.07770000
C        0.18920000       0.01720000      -0.05840000
C        0.48160000      -0.52800000       1.34630000
C        0.64970000      -2.03190000       1.36460000
C        1.97450000      -2.66680000       1.06640000
C        1.41620000      -2.73350000       2.48230000
C        2.03680000      -1.96800000       3.52630000
N        2.53300000      -1.35080000       4.37030000
H        0.90790000       2.04730000       0.28110000
H       -0.20140000       1.89990000      -1.08860000
H       -0.82410000       1.84470000       0.56580000
H       -0.71350000      -0.46660000      -0.45430000
H        1.00670000      -0.26770000      -0.73280000
H        1.38600000      -0.05340000       1.74600000
H       -0.33330000      -0.24590000       2.02580000
H       -0.22360000      -2.58740000       1.03180000
H        2.01170000      -3.59710000       0.51160000
H        2.82390000      -2.01090000       0.91050000
H        1.03160000      -3.69180000       2.81460000
