16
Properties=species:S:1:pos:R:3 gdb_35504=T pbc="F F F"
N       -0.61680000      -0.90380000      -1.05670000
C       -0.38050000       0.10680000      -0.54870000
C       -0.07950000       1.40370000       0.06080000
O       -0.04610000       1.36620000       1.49750000
C        1.23860000       2.04690000       1.54250000
C        2.34000000       1.20320000       2.19670000
C        2.95570000       0.47790000       1.02190000
C        2.45690000       0.86530000      -0.15280000
C        1.39370000       1.91590000       0.00310000
H       -0.80940000       2.13860000      -0.30400000
H        1.12810000       3.05030000       1.96360000
H        3.07470000       1.82150000       2.72850000
H        1.90050000       0.52210000       2.93490000
H        3.72650000      -0.27450000       1.14630000
H        2.75060000       0.47480000      -1.11970000
H        1.53800000       2.81070000      -0.60520000
