17
Properties=species:S:1:pos:R:3 gdb_3572=T pbc="F F F"
C       -0.20770000       1.60240000      -0.06950000
C        0.10420000       0.10820000       0.02870000
C        1.35180000      -0.66540000      -0.32760000
C        2.70970000      -0.11860000       0.19470000
C        2.63860000       1.15400000       0.99600000
C        2.17460000      -0.13690000       1.61650000
C        0.81400000      -0.68370000       1.10160000
H        0.46400000       2.12460000      -0.75650000
H       -1.22450000       1.73940000      -0.45050000
H       -0.16020000       2.10330000       0.90150000
H       -0.74910000      -0.48550000      -0.30000000
H        1.32310000      -1.46710000      -1.05590000
H        3.65190000      -0.50940000      -0.16730000
H        3.60780000       1.48040000       1.36500000
H        1.97570000       1.97150000       0.75710000
H        2.64780000      -0.54380000       2.50090000
H        0.31910000      -1.50130000       1.61210000
