12
Properties=species:S:1:pos:R:3 gdb_9974=T pbc="F F F"
C       -0.02240000      -1.21080000       0.03550000
C       -0.04490000      -0.01060000       0.01310000
C       -0.03650000       1.44260000      -0.00540000
C        1.41970000       2.01480000      -0.05040000
C        2.12050000       1.62200000      -1.28030000
N        2.66320000       1.30170000      -2.24710000
C        1.40190000       3.47660000       0.09470000
N        1.35280000       4.62100000       0.23680000
H       -0.01540000      -2.27320000       0.04520000
H       -0.59030000       1.82710000      -0.86780000
H       -0.51850000       1.84490000       0.89180000
H        1.97450000       1.59720000       0.79840000
