21
Properties=species:S:1:pos:R:3 gdb_63514=T pbc="F F F"
C       -0.02060000       1.53210000      -0.06940000
C       -0.08960000       0.02720000       0.06460000
C       -1.20920000      -0.65080000      -0.69310000
O        1.20860000      -0.64370000      -0.06130000
C        0.55810000      -0.64560000       1.18520000
C        1.15250000      -0.23800000       2.54500000
C       -0.15370000      -0.82360000       3.16510000
C        0.26770000      -1.86300000       2.08080000
C        1.73190000      -1.68900000       2.60060000
H        0.83130000       1.93500000       0.48240000
H        0.08560000       1.81670000      -1.12220000
H       -0.93620000       1.99780000       0.31160000
H       -1.13590000      -0.42680000      -1.76310000
H       -1.16700000      -1.73460000      -0.56580000
H       -2.18490000      -0.29530000      -0.34370000
H        1.65780000       0.69000000       2.81140000
H       -0.07110000      -1.16410000       4.19980000
H       -1.08050000      -0.27010000       2.99420000
H       -0.23790000      -2.79150000       1.81690000
H        2.53310000      -1.92460000       1.89820000
H        1.93290000      -2.08400000       3.59990000
