23
Properties=species:S:1:pos:R:3 gdb_96155=T pbc="F F F"
C        0.03330000       1.59300000      -0.01690000
C       -0.01870000       0.05910000       0.01610000
C        0.64210000      -0.51450000      -1.25210000
C        0.60580000      -2.03480000      -1.42670000
O        1.33950000      -2.73790000      -0.42770000
C        0.57580000      -3.02580000       0.70320000
C        1.25930000      -2.94450000       2.03250000
C        0.22240000      -1.90470000       1.64640000
C        0.63670000      -0.48420000       1.30500000
H        1.07000000       1.95020000       0.00850000
H       -0.43090000       1.99010000      -0.92590000
H       -0.48720000       2.02640000       0.84340000
H       -1.07630000      -0.24390000       0.02010000
H        0.16420000      -0.07220000      -2.13730000
H        1.69320000      -0.19540000      -1.27730000
H       -0.43340000      -2.39710000      -1.45620000
H        1.07200000      -2.29740000      -2.38290000
H       -0.15940000      -3.81780000       0.54970000
H        1.01620000      -3.68490000       2.78650000
H        2.29710000      -2.62940000       2.02130000
H       -0.74750000      -1.98830000       2.13080000
H        1.72610000      -0.42580000       1.19610000
H        0.38030000       0.16890000       2.14830000
