17
Properties=species:S:1:pos:R:3 gdb_71554=T pbc="F F F"
C       -0.03300000       1.43980000      -0.09500000
C       -0.01020000      -0.05130000      -0.01130000
O        0.55360000      -0.82300000      -1.11830000
C        0.11840000      -1.82540000      -0.15980000
C        0.53080000      -1.01320000       1.10180000
C       -0.86050000      -1.17130000       1.75570000
C       -1.19750000      -1.07620000       0.25790000
C       -2.49500000      -1.11300000      -0.45600000
O       -3.57080000      -1.18280000       0.08920000
H        0.98820000       1.82740000      -0.16400000
H       -0.58850000       1.77000000      -0.97740000
H       -0.50700000       1.86340000       0.79550000
H        0.25470000      -2.87920000      -0.40040000
H        1.52070000      -0.98190000       1.55730000
H       -1.06800000      -2.13000000       2.23630000
H       -1.20520000      -0.34790000       2.38530000
H       -2.40730000      -1.06490000      -1.56420000
