14
Properties=species:S:1:pos:R:3 gdb_132045=T pbc="F F F"
C        0.02210000       1.51230000       0.01130000
C       -0.02390000       0.01770000       0.02350000
C       -1.16110000      -0.69650000      -0.10900000
F       -2.34370000      -0.11080000      -0.26290000
C       -1.17770000      -2.14880000      -0.09360000
N       -2.21220000      -2.86280000      -0.21440000
O        0.09520000      -2.71010000       0.07180000
C        1.17840000      -1.91420000       0.19610000
N        1.19880000      -0.64310000       0.18300000
H        0.67250000       1.85900000      -0.79870000
H       -0.97210000       1.94030000      -0.11780000
H        0.45500000       1.88020000       0.94760000
H       -1.98120000      -3.85520000      -0.17390000
H        2.08160000      -2.50400000       0.31520000
