12
Properties=species:S:1:pos:R:3 gdb_21667=T pbc="F F F"
N       -0.06420000       1.37240000       0.14360000
C        0.02020000       0.00140000       0.03800000
N       -1.06900000      -0.76900000       0.02710000
N       -0.55050000      -2.00510000      -0.01290000
N        0.74870000      -2.11460000      -0.03810000
C        1.17220000      -0.83570000      -0.00290000
C        2.58190000      -0.45380000       0.00100000
O        3.52160000      -1.21200000      -0.04860000
H        0.66980000       1.89180000      -0.31290000
H       -0.98300000       1.73710000      -0.06470000
H       -1.14910000      -2.81610000      -0.02510000
H        2.74010000       0.64830000       0.06030000
