21
Properties=species:S:1:pos:R:3 gdb_115564=T pbc="F F F"
C       -0.04920000       1.62570000      -0.07490000
C       -0.00800000       0.10220000      -0.00530000
C        1.13950000      -0.53430000      -0.86720000
C        2.00550000      -0.67940000       0.40930000
C        0.71690000      -0.51480000       1.25140000
C        0.76470000       0.26570000       2.54970000
O        1.53570000      -0.50070000       3.46500000
C       -1.36750000      -0.50170000      -0.25870000
O       -2.38150000       0.11370000      -0.47000000
H        0.94500000       2.05890000       0.06650000
H       -0.42460000       1.94480000      -1.05130000
H       -0.72160000       2.04230000       0.68010000
H        0.84810000      -1.50550000      -1.27980000
H        1.51770000       0.08900000      -1.68090000
H        2.57140000      -1.60370000       0.53620000
H        2.68930000       0.16410000       0.54330000
H        0.29080000      -1.50210000       1.46710000
H        1.21730000       1.25500000       2.38300000
H       -0.25840000       0.43110000       2.92640000
H        1.62870000       0.00480000       4.27780000
H       -1.37190000      -1.61860000      -0.23560000
