20
Properties=species:S:1:pos:R:3 gdb_110523=T pbc="F F F"
C       -0.16440000       1.50920000      -0.11200000
C        0.00790000       0.03650000       0.03770000
C        0.52250000      -1.02990000      -0.85630000
C        1.35340000      -1.65950000       0.25960000
C        0.37930000      -0.94130000       1.23300000
C       -0.95520000      -1.63710000       0.91560000
C       -2.19590000      -1.14370000       1.64170000
O       -3.36580000      -1.51740000       0.94100000
N       -0.93420000      -1.01360000      -0.45450000
H        0.78400000       2.03530000       0.04380000
H       -0.52160000       1.74050000      -1.12050000
H       -0.89170000       1.90740000       0.60380000
H        0.72100000      -0.99680000      -1.92000000
H        1.42390000      -2.75040000       0.32780000
H        2.35480000      -1.22160000       0.28290000
H        0.68340000      -0.67840000       2.24510000
H       -0.95020000      -2.73440000       0.89420000
H       -2.25750000      -1.59610000       2.63750000
H       -2.13870000      -0.05050000       1.77870000
H       -3.19950000      -1.28260000       0.01860000
