21
Properties=species:S:1:pos:R:3 gdb_108221=T pbc="F F F"
C        0.36560000       1.69530000       0.02190000
C        0.32860000       0.18350000       0.06950000
C        0.64550000      -0.74920000      -1.09960000
C       -0.28580000      -1.81750000      -1.59460000
C        1.84560000      -0.19110000      -1.86010000
O        2.62490000      -0.07230000      -0.63740000
C        1.56030000      -0.68200000       0.10790000
C        1.96890000      -1.65990000       1.17620000
O        0.86230000      -2.16770000       1.90330000
H        1.30670000       2.04830000      -0.40660000
H       -0.46150000       2.09980000      -0.57160000
H        0.28670000       2.11680000       1.03000000
H       -0.48350000      -0.23680000       0.66060000
H       -1.04410000      -1.41090000      -2.27470000
H        0.25870000      -2.60080000      -2.13460000
H       -0.80540000      -2.29320000      -0.75770000
H        2.30550000      -0.92320000      -2.53490000
H        1.73720000       0.76820000      -2.38010000
H        2.46070000      -2.52670000       0.72190000
H        2.71110000      -1.17750000       1.83260000
H        0.50550000      -1.44540000       2.42990000
