23
Properties=species:S:1:pos:R:3 gdb_113954=T pbc="F F F"
O       -0.09840000       1.28890000      -0.76140000
C       -0.01540000       0.12530000       0.05440000
C       -1.35560000      -0.55980000       0.01790000
C       -1.70610000      -1.50970000      -1.10190000
C       -1.53060000      -2.03590000       0.30140000
C       -0.38860000      -2.96610000       0.67330000
C       -0.75180000      -4.42950000       0.50740000
C       -0.57320000      -5.12590000      -0.81770000
C        0.32270000      -5.47400000       0.34720000
H        0.72880000       1.77190000      -0.67360000
H        0.77270000      -0.55200000      -0.30850000
H        0.23960000       0.39350000       1.09280000
H       -2.15920000       0.08340000       0.36690000
H       -2.69980000      -1.46730000      -1.53360000
H       -0.92180000      -1.73210000      -1.81940000
H       -2.45480000      -2.27760000       0.82260000
H        0.49520000      -2.74870000       0.06180000
H       -0.09140000      -2.78570000       1.71620000
H       -1.62180000      -4.73590000       1.08410000
H       -1.31830000      -5.84930000      -1.13000000
H       -0.14140000      -4.55720000      -1.63470000
H        1.35400000      -5.13730000       0.31040000
H        0.18950000      -6.43470000       0.83240000
