20
Properties=species:S:1:pos:R:3 gdb_107923=T pbc="F F F"
C        0.37470000       1.58330000      -0.06650000
N       -0.02990000       0.20090000       0.14330000
C       -0.95100000      -0.12230000       1.22670000
C       -0.31060000      -1.44850000       1.47890000
C        0.92020000      -0.76000000       0.77160000
C        1.32120000      -0.18040000       2.16530000
C       -0.14740000      -0.37090000       2.53770000
C       -0.76170000      -0.29720000       3.89960000
O       -2.12200000      -0.70180000       3.79410000
H        1.19380000       1.61170000      -0.79340000
H       -0.46910000       2.13570000      -0.49400000
H        0.69890000       2.11690000       0.84120000
H       -1.99780000       0.15090000       1.23380000
H       -0.70410000      -2.45370000       1.49470000
H        1.66020000      -1.21880000       0.11680000
H        1.95510000      -0.89300000       2.70160000
H        1.77430000       0.81610000       2.21200000
H       -0.21050000      -0.94970000       4.59800000
H       -0.68150000       0.73270000       4.28770000
H       -2.51560000      -0.66330000       4.67030000
