18
Properties=species:S:1:pos:R:3 gdb_15272=T pbc="F F F"
C        0.16130000       1.03800000       0.21210000
O       -0.19480000      -0.07570000      -0.58960000
C       -1.42830000      -0.63540000      -0.26290000
C       -1.56650000      -2.06420000      -0.68660000
O       -0.44850000      -2.68790000      -1.26100000
C       -1.51420000      -1.73360000       0.79470000
C       -0.28800000      -2.19660000       1.56300000
O       -0.14190000      -3.60610000       1.53670000
H        1.13050000       1.39300000      -0.14440000
H       -0.57600000       1.84700000       0.11280000
H        0.24130000       0.76270000       1.27180000
H       -2.27270000       0.04510000      -0.37550000
H       -2.50010000      -2.40330000      -1.12540000
H        0.18570000      -1.98740000      -1.46470000
H       -2.45800000      -1.80270000       1.32820000
H        0.60870000      -1.69990000       1.16840000
H       -0.37810000      -1.91520000       2.61700000
H       -0.04200000      -3.83370000       0.60350000
