16
Properties=species:S:1:pos:R:3 gdb_56440=T pbc="F F F"
C       -0.79800000       1.50070000       0.97720000
C       -0.57540000       0.32290000       0.01630000
C        0.82170000      -0.12050000       0.01890000
N        1.92420000      -0.46540000       0.05410000
C       -1.46390000      -0.89110000       0.39420000
O       -1.96880000      -0.99700000       1.48210000
C       -1.67440000      -1.94050000      -0.65980000
C       -2.30790000      -1.58330000      -1.94740000
O       -0.91480000      -1.84170000      -1.86070000
H       -0.13600000       2.33020000       0.72080000
H       -1.83470000       1.83940000       0.91230000
H       -0.60530000       1.19270000       2.00560000
H       -0.80940000       0.61160000      -1.01500000
H       -1.82900000      -2.94320000      -0.26620000
H       -2.90190000      -2.33850000      -2.45800000
H       -2.58800000      -0.55040000      -2.14950000
