21
Properties=species:S:1:pos:R:3 gdb_94391=T pbc="F F F"
C       -0.20590000       1.49630000      -0.28620000
C        0.26410000       0.06040000      -0.17380000
O        1.64430000      -0.09880000      -0.57960000
C        1.95220000      -0.85540000       0.60490000
C        0.55400000      -0.57950000       1.21370000
C        0.56810000       0.32510000       2.47120000
C        0.27500000      -0.64080000       3.59500000
C       -0.18410000      -1.80540000       3.14020000
C       -0.26780000      -1.81960000       1.63330000
H        0.41820000       2.16860000       0.30900000
H       -0.15320000       1.81930000      -1.33100000
H       -1.24590000       1.59320000       0.04490000
H       -0.38570000      -0.58630000      -0.78480000
H        2.15220000      -1.91200000       0.37650000
H        2.81240000      -0.44010000       1.14480000
H        1.51910000       0.85720000       2.58960000
H       -0.21030000       1.10010000       2.42440000
H        0.38880000      -0.37300000       4.63960000
H       -0.50430000      -2.63970000       3.75420000
H       -1.31380000      -1.73360000       1.30070000
H        0.11830000      -2.74110000       1.18150000
