18
Properties=species:S:1:pos:R:3 gdb_81791=T pbc="F F F"
C       -0.15690000       1.49690000       0.06430000
C        0.14480000       0.03680000      -0.00520000
O       -0.69920000      -0.88430000       0.72780000
C        0.72090000      -0.90890000       0.97100000
C        1.30360000      -1.79930000      -0.14750000
O        0.86880000      -3.12810000      -0.18560000
C        0.69800000      -0.78450000      -1.16130000
C        0.14200000      -0.99910000      -2.50840000
N        1.43840000      -0.30290000      -2.32160000
H        0.70630000       2.08820000      -0.25850000
H       -1.00600000       1.75440000      -0.57910000
H       -0.40980000       1.78350000       1.08810000
H        1.05240000      -0.76140000       1.99300000
H        2.39550000      -1.79970000      -0.19080000
H       -0.08720000      -3.09680000      -0.04990000
H        0.21980000      -1.98260000      -2.96290000
H       -0.72630000      -0.41900000      -2.81110000
H        1.30900000       0.70120000      -2.43300000
