18
Properties=species:S:1:pos:R:3 gdb_63901=T pbc="F F F"
C       -0.37760000       1.59380000      -0.01570000
C        0.04830000       0.13450000      -0.03460000
O       -1.08520000      -0.74310000      -0.02820000
C        0.91970000      -0.30960000      -1.22050000
C        1.85540000      -1.36450000      -0.62120000
C        3.02380000      -0.91500000       0.17630000
N        1.77150000      -1.32930000       0.84940000
C        0.90800000      -0.25440000       1.19970000
O        0.81470000       0.22480000       2.29800000
H        0.48510000       2.26190000      -0.09900000
H       -1.06270000       1.79610000      -0.84360000
H       -0.88020000       1.82250000       0.92930000
H       -1.56660000      -0.59080000       0.79400000
H        0.28760000      -0.72910000      -2.00490000
H        1.47490000       0.53280000      -1.64300000
H        1.86490000      -2.35790000      -1.05760000
H        3.86720000      -1.57580000       0.35160000
H        3.26930000       0.14500000       0.17860000
