21
Properties=species:S:1:pos:R:3 gdb_116508=T pbc="F F F"
C       -0.13130000       1.37920000       0.01220000
O        0.03200000      -0.02190000       0.00310000
C        0.71820000      -0.53320000      -1.13330000
C        1.35940000      -1.85660000      -0.70310000
C        2.48090000      -2.35270000      -1.62910000
O        2.32510000      -2.04560000      -3.01090000
C        1.05380000      -2.21220000      -3.57340000
O        0.28180000      -1.04210000      -3.53390000
C       -0.29470000      -0.73350000      -2.27930000
H        0.83860000       1.89900000      -0.01670000
H       -0.74020000       1.74470000      -0.82760000
H       -0.64130000       1.63560000       0.94410000
H        1.49530000       0.17470000      -1.46060000
H        1.77500000      -1.72550000       0.30100000
H        0.56790000      -2.60900000      -0.60940000
H        3.42760000      -1.87800000      -1.35340000
H        2.61020000      -3.43760000      -1.49690000
H        1.20930000      -2.42290000      -4.63440000
H        0.51460000      -3.05220000      -3.10100000
H       -1.00760000      -1.51630000      -1.97210000
H       -0.86050000       0.18800000      -2.43930000
