17
Properties=species:S:1:pos:R:3 gdb_86654=T pbc="F F F"
O        0.17340000       1.55460000      -0.39170000
C       -0.04590000       0.17840000      -0.13480000
C       -1.51270000      -0.23820000      -0.38010000
N       -1.49920000      -0.69830000      -1.76750000
C       -2.64410000      -0.90140000      -2.51550000
N       -3.79320000      -0.66610000      -2.02350000
C       -0.22250000      -1.00950000      -2.23890000
O        0.02570000      -1.42680000      -3.34530000
C        0.74350000      -0.73060000      -1.09260000
H       -0.08810000       1.74440000      -1.30010000
H        0.23680000       0.03500000       0.90930000
H       -1.83640000      -1.04460000       0.28870000
H       -2.20060000       0.59990000      -0.25630000
H       -2.41040000      -1.26710000      -3.51830000
H       -4.51640000      -0.86410000      -2.71290000
H        1.66940000      -0.27440000      -1.44580000
H        0.99700000      -1.68880000      -0.62370000
