15
Properties=species:S:1:pos:R:3 gdb_27383=T pbc="F F F"
N        0.13690000       1.38080000       0.14230000
C       -0.00640000      -0.00330000       0.03170000
C       -1.17730000      -0.68640000       0.01680000
C       -1.22380000      -2.14920000      -0.00690000
O       -2.27430000      -2.78520000      -0.01780000
C        0.09380000      -2.79150000      -0.04060000
C        1.22630000      -2.05430000      -0.02750000
O        2.50170000      -2.51000000      -0.03020000
N        1.19500000      -0.68300000      -0.00950000
H        0.78090000       1.78100000      -0.53030000
H       -0.75140000       1.86120000       0.10030000
H       -2.11990000      -0.15280000       0.00500000
H        0.13570000      -3.87360000      -0.08040000
H        2.48160000      -3.47280000      -0.01040000
H        2.05110000      -0.19750000       0.20900000
