17
Properties=species:S:1:pos:R:3 gdb_74373=T pbc="F F F"
N        0.03600000       1.34970000      -0.15770000
C       -0.03770000      -0.02170000      -0.01040000
N       -1.17560000      -0.59760000       0.01750000
C       -1.19570000      -2.06630000       0.04900000
C        0.13480000      -2.68340000      -0.41430000
O        1.21350000      -2.09280000       0.28710000
C        1.31240000      -0.71970000       0.00430000
C       -1.56870000      -2.54040000       1.38570000
C       -1.87050000      -2.94750000       2.47510000
H        0.81580000       1.81460000       0.28300000
H       -0.85000000       1.81700000      -0.02160000
H       -1.97760000      -2.39100000      -0.65240000
H        0.17030000      -3.75420000      -0.20380000
H        0.24690000      -2.52820000      -1.49990000
H        1.80360000      -0.54430000      -0.96920000
H        1.95350000      -0.28090000       0.77790000
H       -2.13940000      -3.30060000       3.43970000
