16
Properties=species:S:1:pos:R:3 gdb_124661=T pbc="F F F"
C       -0.04250000       1.54160000       0.92170000
C       -0.08040000       0.31630000      -0.03200000
C        1.09750000      -0.57360000       0.31900000
O        1.04060000      -1.69240000       0.76740000
C       -1.41760000      -0.36200000      -0.03600000
C       -2.64410000       0.03390000      -0.52670000
N       -3.56420000      -0.93090000      -0.25640000
N       -2.97870000      -1.90890000       0.37670000
N       -1.68710000      -1.57000000       0.51810000
H        0.93650000       2.03050000       0.89330000
H       -0.79830000       2.26960000       0.62070000
H       -0.25140000       1.23460000       1.95000000
H        0.12660000       0.69500000      -1.04340000
H        2.08120000      -0.08180000       0.15620000
H       -2.91020000       0.93830000      -1.05060000
H       -1.01430000      -2.19580000       0.93690000
