23
Properties=species:S:1:pos:R:3 gdb_101127=T pbc="F F F"
C       -0.26340000       1.35950000       0.02550000
O        0.01070000      -0.01850000      -0.04120000
C        0.74790000      -0.54040000       1.06230000
C       -0.10660000      -0.62560000       2.33410000
C        1.25990000      -1.88950000       0.64640000
C        2.53610000      -2.47540000       1.18220000
C        2.40450000      -2.25550000      -0.30160000
C        1.55920000      -3.36910000      -0.92780000
C        0.38920000      -3.00680000       0.04630000
H        0.65480000       1.95050000       0.17480000
H       -0.71030000       1.64520000      -0.93060000
H       -0.97040000       1.61870000       0.82740000
H        1.61300000       0.11840000       1.25580000
H        0.47950000      -1.05380000       3.15280000
H       -0.45920000       0.35880000       2.65440000
H       -0.97900000      -1.26340000       2.16160000
H        3.19140000      -1.77780000       1.69610000
H        2.55140000      -3.48280000       1.59450000
H        3.07730000      -1.59470000      -0.83570000
H        1.29890000      -3.17550000      -1.97050000
H        1.97010000      -4.38160000      -0.85210000
H        0.06020000      -3.78850000       0.73930000
H       -0.47830000      -2.61040000      -0.48320000
