17
Properties=species:S:1:pos:R:3 gdb_106742=T pbc="F F F"
C       -0.08740000       1.41740000       0.04810000
C        0.12480000      -0.05730000       0.07410000
C        1.31860000      -0.86460000      -0.28470000
C        0.67290000      -1.03040000       1.10360000
C        1.38600000      -0.93260000       2.42230000
O        2.02550000      -2.15010000       2.76700000
C       -0.62830000      -1.74890000       0.88430000
O       -1.21310000      -2.66260000       1.37510000
O       -1.06030000      -0.90410000      -0.12490000
H        0.83590000       1.93720000       0.31830000
H       -0.37820000       1.74340000      -0.95600000
H       -0.87600000       1.71150000       0.74640000
H        1.24070000      -1.65140000      -1.02820000
H        2.27600000      -0.35120000      -0.25230000
H        2.17380000      -0.17380000       2.37130000
H        0.67780000      -0.61990000       3.20450000
H        1.33840000      -2.82160000       2.84680000
