15
Properties=species:S:1:pos:R:3 gdb_128536=T pbc="F F F"
C        0.06020000       0.63250000       0.63790000
O       -0.13170000       0.67220000      -0.77830000
C        0.44310000      -0.32240000      -1.47740000
C        0.75650000      -1.64360000      -1.20850000
O        0.56440000      -2.32770000      -0.03630000
C        1.29320000      -2.11530000      -2.42490000
O        1.74540000      -3.38100000      -2.59470000
N        1.31570000      -1.20130000      -3.37780000
N        0.80120000      -0.09500000      -2.76770000
H       -0.36060000      -0.27900000       1.07000000
H        1.12640000       0.68880000       0.88590000
H       -0.45680000       1.50750000       1.03380000
H        1.01340000      -3.17550000      -0.12240000
H        2.06900000      -3.45120000      -3.50120000
H        0.64220000       0.74570000      -3.29300000
