19
Properties=species:S:1:pos:R:3 gdb_98733=T pbc="F F F"
C        0.12910000       1.54520000       0.01720000
C       -0.04900000       0.03230000      -0.06420000
C       -1.47530000      -0.43040000       0.18520000
O       -2.37020000       0.34450000       0.45250000
C       -1.70380000      -1.91040000       0.09150000
C       -2.88650000      -2.50980000       0.79400000
C       -2.89710000      -2.47650000      -0.71230000
C       -3.85680000      -1.59450000      -1.43070000
O       -4.32720000      -1.88540000      -2.50460000
H        1.17200000       1.82090000      -0.16100000
H       -0.49480000       2.05130000      -0.72380000
H       -0.16650000       1.91980000       1.00030000
H        0.25840000      -0.35770000      -1.04500000
H        0.59730000      -0.48630000       0.65880000
H       -0.80600000      -2.51390000       0.01140000
H       -2.76980000      -3.47110000       1.27980000
H       -3.53080000      -1.79820000       1.30010000
H       -2.69050000      -3.40020000      -1.24230000
H       -4.12730000      -0.65850000      -0.90630000
