20
Properties=species:S:1:pos:R:3 gdb_82569=T pbc="F F F"
C       -0.07680000       1.45640000      -0.17330000
C        0.03950000      -0.04670000      -0.10840000
C        0.81800000      -0.77430000      -1.13700000
N        1.37070000      -0.55550000       0.26540000
C        1.18670000      -2.03140000       0.50870000
C        0.70430000      -2.27960000      -0.93940000
C       -0.51000000      -3.12410000      -1.37770000
C        0.51130000      -3.89790000      -2.23040000
O        1.59630000      -3.08000000      -1.74070000
H        0.83070000       1.89260000      -0.59920000
H       -0.93020000       1.75560000      -0.79090000
H       -0.21460000       1.87630000       0.82820000
H       -0.82290000      -0.55500000       0.32700000
H        1.24880000      -0.29340000      -2.01030000
H        2.15260000      -2.51050000       0.68140000
H        0.49850000      -2.26750000       1.32870000
H       -0.98080000      -3.69880000      -0.57780000
H       -1.27770000      -2.57660000      -1.92780000
H        0.65110000      -4.95450000      -1.97510000
H        0.39170000      -3.80730000      -3.31660000
