20
Properties=species:S:1:pos:R:3 gdb_107844=T pbc="F F F"
C        0.03900000       1.52980000      -0.19620000
C       -0.04100000       0.02370000       0.08510000
C       -1.44850000      -0.52070000       0.08080000
C       -2.49870000      -0.04880000       1.12330000
C       -3.40930000      -1.26340000       0.88940000
O       -2.55170000      -2.35280000       1.34430000
C       -1.80180000      -2.09140000       0.15930000
C       -3.01050000      -1.58740000      -0.63340000
N       -2.21440000      -0.50430000      -1.20960000
H        1.07770000       1.87340000      -0.19330000
H       -0.38540000       1.76730000      -1.17730000
H       -0.50530000       2.10890000       0.55710000
H        0.54380000      -0.51760000      -0.66780000
H        0.41290000      -0.19850000       1.05930000
H       -2.14500000      -0.02700000       2.15670000
H       -2.93640000       0.91830000       0.85810000
H       -4.41930000      -1.29870000       1.29410000
H       -1.07040000      -2.84270000      -0.13120000
H       -3.67530000      -2.18300000      -1.25700000
H       -2.72210000       0.36330000      -1.38170000
