14
Properties=species:S:1:pos:R:3 gdb_35837=T pbc="F F F"
N        0.02670000      -1.15060000       0.44330000
C        0.01070000      -0.02230000       0.19710000
C       -0.00250000       1.42140000      -0.12340000
N       -0.78480000       2.18970000       0.85520000
C        0.14530000       2.98190000       1.68200000
C        1.47200000       2.88270000       0.98130000
C        1.41030000       2.01730000      -0.03410000
C        2.45600000       1.64480000      -0.91580000
N        3.28410000       1.33360000      -1.66330000
H       -0.42040000       1.52280000      -1.13150000
H       -1.42890000       2.79680000       0.36790000
H       -0.20070000       4.01680000       1.78330000
H        0.22100000       2.57580000       2.70160000
H        2.35970000       3.41850000       1.29200000
