14
Properties=species:S:1:pos:R:3 gdb_42625=T pbc="F F F"
O       -0.00580000       0.00600000      -0.19760000
C       -0.03620000       1.19080000      -0.00150000
C       -1.22650000       2.08280000       0.12030000
C       -1.25770000       3.14000000       1.21840000
N        0.07800000       3.23510000       1.84320000
C        0.64730000       3.48480000       0.45630000
C       -0.78590000       3.53500000      -0.14390000
C        1.21510000       2.12820000       0.05510000
O        2.34530000       1.81390000      -0.18410000
H       -2.18410000       1.73630000      -0.24640000
H       -2.17550000       3.34340000       1.75630000
H        0.14260000       4.10040000       2.37300000
H        1.31910000       4.33300000       0.35420000
H       -1.18170000       4.16220000      -0.93130000
