13
Properties=species:S:1:pos:R:3 gdb_2746=T pbc="F F F"
N        0.05230000       1.31410000       0.00730000
C       -0.00940000       0.04690000       0.00420000
N       -1.20560000      -0.64840000       0.01160000
C       -1.44720000      -2.10120000       0.00960000
C       -2.96880000      -1.79610000       0.02260000
C       -2.57180000      -0.30520000       0.02350000
O       -3.14520000       0.74100000       0.03090000
H        1.02540000       1.61530000       0.00040000
H        0.84690000      -0.64090000      -0.00460000
H       -1.07990000      -2.60510000      -0.88910000
H       -1.06570000      -2.61000000       0.89960000
H       -3.52100000      -2.10830000      -0.86530000
H       -3.50670000      -2.11310000       0.91740000
