21
Properties=species:S:1:pos:R:3 gdb_120342=T pbc="F F F"
C        0.06030000       1.52490000       0.01920000
C       -0.10540000       0.01890000      -0.10280000
O        0.78340000      -0.44550000      -1.09880000
C        0.80590000      -1.85940000      -1.25780000
C       -0.38260000      -2.41450000      -2.03650000
C        0.00460000      -3.09860000      -3.11360000
C        1.49000000      -3.08750000      -3.27240000
C        2.08930000      -1.71350000      -3.50550000
C        2.00590000      -2.27090000      -2.10710000
H        1.08950000       1.77600000       0.29080000
H       -0.17040000       2.01330000      -0.93190000
H       -0.61090000       1.92300000       0.78620000
H        0.11390000      -0.47350000       0.86040000
H       -1.14910000      -0.22770000      -0.35730000
H        0.86580000      -2.31960000      -0.25600000
H       -1.40900000      -2.22650000      -1.74450000
H       -0.65790000      -3.57550000      -3.82810000
H        2.01200000      -3.96430000      -3.63790000
H        3.07760000      -1.66460000      -3.95080000
H        1.42080000      -0.90560000      -3.77950000
H        2.92800000      -2.53030000      -1.60270000
