19
Properties=species:S:1:pos:R:3 gdb_56208=T pbc="F F F"
N       -0.08860000       1.23990000      -0.09710000
C       -0.40410000      -0.05970000       0.28290000
O       -0.33630000      -0.44610000       1.43560000
N       -0.77410000      -0.87890000      -0.76230000
C       -0.91880000      -2.31260000      -0.52820000
C       -2.25940000      -2.66670000       0.10840000
C       -3.49110000      -2.53300000      -0.81080000
O       -3.64280000      -3.96640000      -0.89140000
C       -2.60600000      -4.17130000       0.09140000
H       -0.04130000       1.86830000       0.69080000
H       -0.57220000       1.62370000      -0.89540000
H       -0.50570000      -0.59230000      -1.68960000
H       -0.82780000      -2.81500000      -1.49710000
H       -0.10650000      -2.66780000       0.11710000
H       -2.33850000      -2.17500000       1.07780000
H       -4.36750000      -2.05490000      -0.35430000
H       -3.31370000      -2.07860000      -1.79440000
H       -1.82020000      -4.84690000      -0.27230000
H       -3.00550000      -4.56950000       1.03280000
