13
Properties=species:S:1:pos:R:3 gdb_132207=T pbc="F F F"
N        0.04810000       1.34830000       0.13790000
C       -0.03630000      -0.01780000       0.02180000
N       -1.15570000      -0.63490000       0.03420000
C       -1.16390000      -2.03840000       0.00700000
N       -2.27730000      -2.65430000       0.00630000
N        0.08190000      -2.74140000      -0.02440000
C        1.12930000      -2.04680000      -0.03800000
F        2.33240000      -2.59620000      -0.03660000
N        1.19330000      -0.67610000      -0.06640000
H        0.77790000       1.80790000      -0.38740000
H       -0.85530000       1.79350000       0.05620000
H       -2.08960000      -3.65680000      -0.02000000
H        2.06110000      -0.21500000       0.15990000
