17
Properties=species:S:1:pos:R:3 gdb_85030=T pbc="F F F"
C       -0.01740000       1.46520000       0.08500000
N       -0.01290000       0.01710000       0.04110000
C       -1.14910000      -0.76600000      -0.09170000
N       -2.35680000      -0.44090000      -0.30690000
C       -0.73270000      -2.22640000       0.04970000
O       -1.39510000      -3.05070000      -0.87420000
C        0.78540000      -2.19190000      -0.15650000
C        1.17070000      -0.73110000       0.04160000
O        2.27310000      -0.25670000       0.15580000
H        1.01120000       1.78930000       0.24650000
H       -0.38510000       1.88570000      -0.85750000
H       -0.64970000       1.82240000       0.90370000
H       -2.49620000       0.56440000      -0.40200000
H       -0.96160000      -2.53270000       1.08400000
H       -2.27290000      -2.65980000      -0.99110000
H        1.35750000      -2.83490000       0.51300000
H        1.02090000      -2.47770000      -1.18710000
