15
Properties=species:S:1:pos:R:3 gdb_126099=T pbc="F F F"
C        0.08560000       1.58570000      -0.07090000
C       -0.00240000       0.07270000       0.06910000
O        0.63620000      -0.55280000      -1.07190000
C        1.46260000      -1.67480000      -0.72080000
C        1.60590000      -1.54370000       0.76070000
N        2.25300000      -2.06090000       1.75760000
O        1.79390000      -1.35760000       2.85890000
N        0.85460000      -0.40350000       2.50750000
C        0.74590000      -0.52340000       1.22140000
H        1.12910000       1.91030000      -0.07840000
H       -0.38670000       1.89810000      -1.00540000
H       -0.42990000       2.07000000       0.76350000
H       -1.05740000      -0.23820000       0.10130000
H        0.97730000      -2.62010000      -1.00190000
H        2.40890000      -1.59820000      -1.26560000
