16
Properties=species:S:1:pos:R:3 gdb_13470=T pbc="F F F"
C       -0.04820000       1.49490000      -0.23640000
C        0.03220000      -0.00230000      -0.05890000
O        1.06240000      -0.64400000      -0.04960000
N       -1.17880000      -0.65710000       0.10220000
C       -1.41010000      -2.09550000       0.29300000
C       -2.93290000      -1.77580000       0.35550000
C       -2.53510000      -0.30820000       0.14990000
N       -3.06840000       0.83220000       0.04620000
H        0.96360000       1.88350000      -0.35100000
H       -0.65770000       1.74670000      -1.10870000
H       -0.54290000       1.95810000       0.62180000
H       -1.08410000      -2.70120000      -0.55550000
H       -0.96630000      -2.48570000       1.21160000
H       -3.53380000      -2.19670000      -0.45280000
H       -3.41620000      -1.98140000       1.31230000
H       -4.08210000       0.76400000       0.12200000
