20
Properties=species:S:1:pos:R:3 gdb_71585=T pbc="F F F"
C       -0.03640000       1.52850000      -0.05670000
C        0.01260000       0.02170000      -0.03950000
C        0.65140000      -0.96210000      -1.03650000
N        0.05640000      -1.92840000      -0.00590000
C        0.61200000      -0.92940000       1.04080000
C        0.00760000      -1.02730000       2.43470000
C       -1.49280000      -1.05740000       2.36890000
C       -2.06260000      -1.04010000       1.16660000
C       -1.18190000      -0.98400000      -0.03930000
H        0.96970000       1.95780000       0.00780000
H       -0.50070000       1.89820000      -0.97770000
H       -0.62050000       1.90760000       0.78900000
H        0.19940000      -1.05370000      -2.02900000
H        1.74350000      -1.00570000      -1.09090000
H        1.70650000      -0.96150000       1.08230000
H        0.38910000      -1.93060000       2.93060000
H        0.35710000      -0.18330000       3.04690000
H       -2.06640000      -1.10160000       3.28970000
H       -3.13890000      -1.06530000       1.03040000
H       -1.73280000      -1.07680000      -0.97940000
