16
Properties=species:S:1:pos:R:3 gdb_39550=T pbc="F F F"
O       -0.01900000       1.48350000       0.04680000
C        1.14700000       2.16700000      -0.06810000
N        2.32460000       1.71890000      -0.19310000
C        2.45640000       0.27170000      -0.25010000
C        2.25120000      -0.53800000       1.03400000
C        0.73520000      -0.64020000       1.22740000
C        1.46800000      -1.60310000       0.30480000
C        1.25170000      -0.53420000      -0.82120000
C        0.10580000       0.05360000       0.03230000
H        0.95150000       3.23760000      -0.04890000
H        3.39490000       0.00390000      -0.74050000
H        2.92810000      -0.65240000       1.87040000
H        0.29410000      -0.84170000       2.19420000
H        1.52420000      -2.68020000       0.30330000
H        1.13480000      -0.70150000      -1.88790000
H       -0.88180000      -0.33470000      -0.21890000
