18
Properties=species:S:1:pos:R:3 gdb_35899=T pbc="F F F"
C       -0.14900000      -1.24030000      -0.31170000
C       -0.05560000      -0.05760000      -0.12100000
C        0.02400000       1.38410000       0.09200000
C       -0.67770000       1.84010000       1.39960000
O        0.14010000       1.70060000       2.53830000
C        1.21620000       2.61690000       2.53870000
C        2.05900000       2.52160000       1.28360000
N        2.44680000       1.16550000       0.88760000
C        1.47250000       1.89520000       0.06630000
H       -0.21770000      -2.28800000      -0.46840000
H       -0.50980000       1.87620000      -0.73240000
H       -0.98200000       2.89370000       1.27900000
H       -1.57200000       1.23920000       1.57750000
H        0.83900000       3.65040000       2.63780000
H        1.81590000       2.38450000       3.42420000
H        2.77110000       3.33390000       1.14720000
H        3.35630000       1.16570000       0.43500000
H        1.80900000       2.25820000      -0.90140000
