21
Properties=species:S:1:pos:R:3 gdb_110062=T pbc="F F F"
C        0.31890000       1.04960000       0.39930000
O       -0.07120000      -0.00110000      -0.47480000
C       -1.36680000      -0.53900000      -0.20430000
C       -1.92920000      -1.02440000      -1.56140000
O       -1.65920000      -0.14150000      -2.62110000
C       -1.35540000      -2.44600000      -1.69680000
C       -1.54180000      -3.01280000      -0.28220000
C       -1.25450000      -1.82790000       0.68450000
O        0.00930000      -1.91750000       1.31620000
H        1.30700000       1.38480000       0.07400000
H       -0.38340000       1.89210000       0.33840000
H        0.37610000       0.70060000       1.43660000
H       -1.99120000       0.23840000       0.24950000
H       -3.02170000      -1.09130000      -1.47690000
H       -0.76620000       0.18880000      -2.45590000
H       -1.85260000      -3.02610000      -2.47750000
H       -0.29210000      -2.37850000      -1.95850000
H       -2.57530000      -3.35460000      -0.15080000
H       -0.88680000      -3.85440000      -0.04650000
H       -1.98830000      -1.80250000       1.49480000
H        0.65220000      -1.60380000       0.66730000
