16
Properties=species:S:1:pos:R:3 gdb_26776=T pbc="F F F"
C       -0.04940000       1.53970000      -0.00250000
C       -0.02700000       0.04070000       0.01820000
C        0.02590000      -0.79520000      -1.09250000
N       -0.00260000      -0.50250000      -2.45710000
N        0.03930000      -2.08880000      -0.66480000
C       -0.00620000      -2.11820000       0.72430000
C       -0.05300000      -0.80410000       1.15420000
C        0.01540000      -3.32740000       1.44100000
N        0.03090000      -4.33470000       2.01860000
H        0.54910000       1.94230000      -0.82890000
H       -1.06320000       1.94580000      -0.10840000
H        0.36660000       1.94820000       0.92280000
H       -0.02270000       0.49420000      -2.62630000
H        0.76240000      -0.91450000      -2.98010000
H       -0.01380000      -2.89840000      -1.25940000
H       -0.07620000      -0.49160000       2.18700000
