19
Properties=species:S:1:pos:R:3 gdb_115322=T pbc="F F F"
C        0.01490000       1.52190000      -0.08240000
O        0.04610000       0.11300000       0.09230000
C        0.54530000      -0.59500000      -1.00680000
C        0.85260000      -2.04900000      -0.63920000
O        0.74550000      -2.77650000      -1.86120000
C       -0.32660000      -2.23600000      -2.63220000
C       -1.63440000      -3.01520000      -2.47230000
C       -0.46770000      -0.78880000      -2.15450000
O       -1.25930000       0.02200000      -2.56060000
H        1.02180000       1.91490000      -0.29250000
H       -0.65960000       1.81320000      -0.89310000
H       -0.34010000       1.94470000       0.86000000
H        1.44540000      -0.11180000      -1.42640000
H        1.85990000      -2.20330000      -0.24930000
H        0.12610000      -2.38940000       0.11370000
H       -0.01700000      -2.24780000      -3.68430000
H       -1.95900000      -3.03300000      -1.42760000
H       -2.41950000      -2.54000000      -3.06710000
H       -1.49960000      -4.04520000      -2.81140000
