19
Properties=species:S:1:pos:R:3 gdb_81773=T pbc="F F F"
C       -0.02910000       1.52480000       0.07400000
C        0.12240000       0.04240000      -0.01380000
O       -0.80320000      -0.81440000       0.66410000
C        0.59630000      -0.96510000       0.95540000
C        1.22640000      -1.81340000      -0.14110000
O        0.82020000      -3.15540000      -0.16020000
C        0.65930000      -0.79560000      -1.21080000
C       -0.36990000      -1.32960000      -2.18810000
O        1.76920000      -0.18600000      -1.85280000
H        0.88000000       2.01530000      -0.28690000
H       -0.87180000       1.87180000      -0.53530000
H       -0.20950000       1.83420000       1.10670000
H        0.89420000      -0.86700000       1.99330000
H        2.31900000      -1.70150000      -0.13040000
H        1.33000000      -3.61580000      -0.83410000
H       -1.19290000      -1.80150000      -1.64980000
H       -0.77720000      -0.52100000      -2.80870000
H        0.08580000      -2.06890000      -2.85470000
H        1.42980000       0.43610000      -2.50560000
