9
Properties=species:S:1:pos:R:3 gdb_133422=T pbc="F F F"
F        0.04640000       0.08330000       0.00250000
C       -0.06300000       1.37900000       0.01120000
N       -1.19920000       1.94390000       0.02970000
C       -1.20380000       3.33810000       0.03770000
O       -2.19000000       4.02330000       0.05460000
C        0.17230000       3.93340000       0.02280000
F        0.24680000       5.23660000       0.02760000
N        1.28420000       3.30470000       0.00410000
O        1.16190000       1.90510000      -0.00230000
