17
Properties=species:S:1:pos:R:3 gdb_68016=T pbc="F F F"
C       -0.11660000       1.48250000      -0.02410000
C        0.10090000       0.00160000       0.04590000
C        1.04270000      -0.81690000      -0.87340000
C        0.70170000      -1.92150000       0.18800000
O        1.36170000      -3.11670000       0.32290000
C        0.70040000      -0.76700000       1.25100000
C       -0.79690000      -2.00760000      -0.05160000
O       -1.48670000      -2.98340000      -0.13940000
O       -1.19090000      -0.71440000      -0.14570000
H        0.83260000       2.00670000       0.11710000
H       -0.52950000       1.76710000      -0.99610000
H       -0.81250000       1.80830000       0.75440000
H        0.72980000      -0.97120000      -1.90860000
H        2.08380000      -0.49370000      -0.81550000
H        0.69510000      -3.81380000       0.23120000
H        1.70940000      -0.43920000       1.50800000
H        0.07700000      -0.87600000       2.14140000
