17
Properties=species:S:1:pos:R:3 gdb_56796=T pbc="F F F"
N        0.03500000       1.46690000       0.12560000
C        0.00220000       0.00110000      -0.01780000
C       -1.39320000      -0.45450000       0.12360000
N       -2.48530000      -0.82350000       0.19890000
C        0.60380000      -0.54010000      -1.29420000
C        1.70880000      -1.26970000      -1.41690000
C        1.97820000      -1.55330000      -2.86580000
O        0.94560000      -0.87510000      -3.57700000
C        0.02880000      -0.27980000      -2.66680000
H        0.99140000       1.78120000      -0.01320000
H       -0.52530000       1.90140000      -0.60210000
H        0.56130000      -0.41800000       0.82740000
H        2.33640000      -1.63180000      -0.61150000
H        2.96050000      -1.18150000      -3.19560000
H        1.94990000      -2.63230000      -3.08800000
H       -0.97240000      -0.72470000      -2.78040000
H       -0.06640000       0.79390000      -2.89250000
