21
Properties=species:S:1:pos:R:3 gdb_112701=T pbc="F F F"
C       -0.55190000       0.72260000       0.10560000
O        0.18940000      -0.46420000      -0.06780000
C        0.97020000      -0.49980000      -1.27350000
C        1.73320000      -1.83240000      -1.27070000
C        0.76740000      -2.81120000      -1.96760000
O       -0.11360000      -3.47440000      -1.06220000
C       -0.01720000      -1.89600000      -2.90260000
C       -0.85910000      -2.45720000      -4.00060000
C        0.10290000      -0.62360000      -2.51230000
H        0.09810000       1.61110000       0.07730000
H       -1.33480000       0.84330000      -0.65690000
H       -1.02660000       0.66690000       1.08840000
H        1.62960000       0.38050000      -1.28830000
H        2.65060000      -1.72770000      -1.85790000
H        1.99570000      -2.15600000      -0.26160000
H        1.28870000      -3.61480000      -2.49780000
H       -0.49870000      -2.77930000      -0.51190000
H       -1.54350000      -3.21160000      -3.59540000
H       -1.44700000      -1.68600000      -4.50540000
H       -0.24160000      -2.96590000      -4.75190000
H       -0.40490000       0.21870000      -2.97000000
