16
Properties=species:S:1:pos:R:3 gdb_94136=T pbc="F F F"
C       -0.42210000       1.42170000      -0.00510000
C        0.18810000       0.04460000      -0.07810000
O        1.48400000       0.02660000      -0.70650000
C        2.05300000      -0.78430000       0.32510000
C        0.78570000      -0.61840000       1.23420000
C        0.96980000       0.26810000       2.37070000
C        1.14230000       1.00800000       3.30070000
C        0.13450000      -1.86410000       1.63180000
N       -0.38460000      -2.85770000       1.91210000
H        0.23030000       2.11360000       0.53140000
H       -0.57700000       1.79770000      -1.02100000
H       -1.39240000       1.38280000       0.49970000
H       -0.49170000      -0.66290000      -0.57060000
H        2.22140000      -1.82000000       0.00800000
H        2.97090000      -0.35880000       0.73850000
H        1.28910000       1.65600000       4.13000000
