22
Properties=species:S:1:pos:R:3 gdb_113443=T pbc="F F F"
C        0.77230000       1.58470000       0.35330000
C       -0.03920000       0.36500000      -0.07450000
N        0.59860000      -0.30810000      -1.20350000
C        1.59370000      -1.33640000      -0.88110000
C        0.26630000      -1.69690000      -1.44010000
C       -0.79510000      -2.57890000      -0.76050000
C       -0.76120000      -3.46910000      -2.03940000
O       -1.95530000      -4.01050000      -2.54050000
C       -0.05230000      -2.31340000      -2.80450000
H        1.76890000       1.28910000       0.69720000
H        0.89660000       2.27570000      -0.48510000
H        0.27460000       2.11350000       1.17210000
H       -0.17930000      -0.31160000       0.78650000
H       -1.03970000       0.67860000      -0.39740000
H        2.48450000      -1.34850000      -1.50470000
H        1.77010000      -1.56290000       0.17100000
H       -0.56420000      -3.04930000       0.19770000
H       -1.75880000      -2.06090000      -0.67610000
H       -0.08870000      -4.31990000      -1.90210000
H       -2.56490000      -3.28410000      -2.70930000
H       -0.77570000      -1.70060000      -3.35620000
H        0.77600000      -2.56680000      -3.46990000
