20
Properties=species:S:1:pos:R:3 gdb_74214=T pbc="F F F"
C       -0.14250000       1.50490000       0.06420000
C       -0.02120000       0.01460000      -0.04270000
C       -0.02400000      -0.65150000      -1.21110000
C       -0.09660000      -2.12210000      -1.37230000
O        0.16820000      -2.63720000      -2.44260000
C       -0.62050000      -2.99360000      -0.21770000
C       -1.67640000      -2.32500000       0.68220000
C       -1.06270000      -1.34410000       1.70570000
N        0.14430000      -0.65450000       1.21440000
H        0.76330000       1.92980000       0.51110000
H       -0.32380000       1.97460000      -0.90480000
H       -0.96680000       1.76320000       0.74060000
H       -0.00830000      -0.10550000      -2.15030000
H       -1.02520000      -3.88950000      -0.69590000
H        0.23430000      -3.33820000       0.38240000
H       -2.39920000      -1.80210000       0.04700000
H       -2.24060000      -3.09530000       1.21930000
H       -1.80210000      -0.59590000       2.01090000
H       -0.76300000      -1.88100000       2.61210000
H        0.87290000      -1.35190000       1.11140000
