19
Properties=species:S:1:pos:R:3 gdb_118374=T pbc="F F F"
C        0.01110000       1.56480000       0.06350000
C        0.19650000       0.05190000       0.11880000
N        0.53570000      -0.47100000      -1.20600000
C        0.66860000      -1.92500000      -1.26150000
C        0.87460000      -2.36410000      -2.73760000
C       -0.27570000      -2.02230000      -3.57080000
N       -1.19910000      -1.73290000      -4.20310000
C        1.80990000      -2.38710000      -0.46740000
C        2.74620000      -2.79820000       0.16300000
H        0.91650000       2.05050000      -0.31100000
H       -0.81850000       1.83830000      -0.59860000
H       -0.21370000       1.96210000       1.05740000
H        1.01820000      -0.20020000       0.79770000
H       -0.71200000      -0.42240000       0.53410000
H       -0.19080000      -0.19700000      -1.86310000
H       -0.23290000      -2.44470000      -0.88400000
H        1.76600000      -1.86680000      -3.13110000
H        1.04240000      -3.44380000      -2.77980000
H        3.57020000      -3.15290000       0.73210000
