22
Properties=species:S:1:pos:R:3 gdb_121479=T pbc="F F F"
C        0.00600000       1.52640000       0.04720000
C        0.00120000       0.01260000       0.14860000
O       -1.31120000      -0.44530000      -0.18650000
C       -1.49640000      -1.77980000      -0.14620000
N       -2.62020000      -2.28000000      -0.41600000
C       -2.75710000      -3.69220000      -0.36010000
C       -4.07790000      -4.24610000       0.13570000
C       -3.72040000      -4.36380000      -1.32290000
C       -4.46240000      -3.56680000      -2.37150000
H        0.99680000       1.91670000       0.29710000
H       -0.24860000       1.84410000      -0.96750000
H       -0.72390000       1.95960000       0.73620000
H        0.73570000      -0.42720000      -0.54040000
H        0.25890000      -0.31130000       1.16650000
H       -0.60380000      -2.35940000       0.13610000
H       -1.86120000      -4.26140000      -0.09830000
H       -4.06160000      -5.13100000       0.76270000
H       -4.82620000      -3.50890000       0.40530000
H       -3.40450000      -5.35290000      -1.64620000
H       -4.68610000      -2.56160000      -2.00840000
H       -3.86620000      -3.46390000      -3.28510000
H       -5.40430000      -4.05780000      -2.64030000
