14
Properties=species:S:1:pos:R:3 gdb_32159=T pbc="F F F"
C       -0.04620000       1.40430000      -0.02210000
O        0.01230000      -0.02650000      -0.04910000
C        0.62680000      -0.59980000      -1.07500000
N        1.16200000       0.16980000      -2.03170000
C        1.75050000      -0.52120000      -3.00540000
N        1.84100000      -1.84250000      -3.09280000
C        1.26060000      -2.48450000      -2.06410000
O        1.30850000      -3.81540000      -2.07890000
N        0.64270000      -1.93240000      -1.03340000
H        0.95740000       1.83530000       0.00050000
H       -0.57660000       1.78950000      -0.89610000
H       -0.58760000       1.64940000       0.89180000
H        2.20230000       0.05560000      -3.80970000
H        1.78530000      -4.06160000      -2.88420000
