16
Properties=species:S:1:pos:R:3 gdb_105290=T pbc="F F F"
O        0.18940000       1.32750000       0.12460000
C       -0.00160000       0.04670000      -0.42830000
C       -1.30680000      -0.58190000       0.04190000
C       -1.37790000      -2.04240000       0.41150000
N       -1.28300000      -1.03540000       1.44330000
C       -2.36690000      -0.81550000       2.30820000
N       -3.07800000      -1.77420000       2.73010000
C       -2.51550000       0.04720000      -0.44920000
N       -3.46620000       0.57010000      -0.84820000
H        0.26190000       1.21750000       1.07970000
H       -0.01800000       0.17140000      -1.51490000
H        0.81550000      -0.64230000      -0.17140000
H       -2.33300000      -2.54790000       0.30750000
H       -0.49490000      -2.65540000       0.25690000
H       -2.46180000       0.23800000       2.59110000
H       -3.76850000      -1.44050000       3.40140000
