14
Properties=species:S:1:pos:R:3 gdb_132065=T pbc="F F F"
N       -0.00120000       1.40110000       0.14810000
C       -0.03600000       0.02580000       0.05540000
C       -1.17490000      -0.73000000       0.02810000
F       -2.36220000      -0.10020000       0.02920000
C       -1.16410000      -2.14530000      -0.00510000
C        0.03980000      -2.77330000      -0.01740000
N        1.19120000      -2.03120000      -0.00570000
C        1.25950000      -0.64220000       0.01680000
O        2.33150000      -0.04540000      -0.00420000
H        0.90080000       1.77750000      -0.11250000
H       -0.79790000       1.89270000      -0.22520000
H       -2.09430000      -2.69520000      -0.01680000
H        0.15910000      -3.84740000      -0.03740000
H        2.09180000      -2.48790000      -0.03260000
