23
Properties=species:S:1:pos:R:3 gdb_101867=T pbc="F F F"
C       -0.11090000       1.55370000       0.06890000
C       -0.01820000       0.02840000      -0.03930000
C        0.78260000      -0.48030000      -1.25200000
C        2.25370000      -0.04490000      -1.21780000
C        0.66060000      -2.00830000      -1.35310000
N        1.25640000      -2.51890000      -2.58680000
C        1.16870000      -3.96860000      -2.69520000
C        1.73030000      -4.44030000      -3.96440000
N        2.15070000      -4.81130000      -4.97410000
H        0.86970000       2.01340000       0.22190000
H       -0.54440000       1.98860000      -0.83890000
H       -0.74530000       1.84580000       0.91140000
H        0.43160000      -0.37620000       0.87830000
H       -1.03360000      -0.38580000      -0.08760000
H        0.31790000      -0.05600000      -2.15680000
H        2.35590000       1.04090000      -1.29330000
H        2.72720000      -0.36120000      -0.28010000
H        2.80750000      -0.49990000      -2.04200000
H        1.19200000      -2.47280000      -0.51020000
H       -0.40150000      -2.30070000      -1.25140000
H        0.80130000      -2.09360000      -3.38890000
H        1.74300000      -4.41930000      -1.87580000
H        0.14110000      -4.36960000      -2.60980000
