16
Properties=species:S:1:pos:R:3 gdb_46123=T pbc="F F F"
O        0.02890000       0.18710000       0.59110000
C        0.03790000       1.33010000       0.22560000
C       -1.15350000       2.29080000       0.21040000
O       -0.69400000       3.48750000      -0.39000000
C        0.72770000       3.57450000      -0.26750000
C        1.13460000       4.29730000       1.03810000
C        0.57330000       5.64200000       1.13150000
N        0.14090000       6.71080000       1.20060000
C        1.23330000       2.12750000      -0.30550000
H       -1.98470000       1.88600000      -0.37520000
H       -1.51030000       2.44620000       1.24030000
H        1.07140000       4.16740000      -1.11810000
H        0.81190000       3.71610000       1.91020000
H        2.22730000       4.36610000       1.08930000
H        2.13250000       1.92890000       0.28100000
H        1.42620000       1.80770000      -1.33530000
