19
Properties=species:S:1:pos:R:3 gdb_106363=T pbc="F F F"
C       -0.10160000       1.45470000       0.01960000
C       -0.14210000      -0.03010000      -0.06280000
C       -0.60160000      -0.88200000      -0.98360000
C       -0.29020000      -2.24980000      -0.34370000
C       -0.40590000      -3.52110000      -1.13950000
O        0.41760000      -3.46800000      -2.29100000
C       -0.78920000      -2.02980000       1.11860000
C        0.39030000      -1.02180000       1.00050000
O        1.08080000      -2.01370000       0.17010000
H        0.92930000       1.81980000       0.11160000
H       -0.54780000       1.91610000      -0.86550000
H       -0.64200000       1.82210000       0.90160000
H       -1.06800000      -0.70860000      -1.94230000
H       -0.15240000      -4.37810000      -0.49680000
H       -1.43610000      -3.65470000      -1.48790000
H        1.28840000      -3.18240000      -1.98970000
H       -1.79880000      -1.64430000       1.27330000
H       -0.56110000      -2.87250000       1.77670000
H        0.97020000      -0.65660000       1.84810000
