14
Properties=species:S:1:pos:R:3 gdb_44539=T pbc="F F F"
N       -0.07540000       0.95640000       0.66710000
C       -0.00940000      -0.09600000      -0.00950000
O        1.13480000      -0.71640000      -0.45480000
C        0.79620000      -1.93140000      -1.09070000
C        0.78820000      -3.19590000      -0.20210000
O        0.05580000      -2.85980000       0.97130000
C       -0.69560000      -3.21410000      -0.18470000
C       -0.75480000      -1.95260000      -1.07610000
O       -1.12450000      -0.74790000      -0.44410000
H        0.85800000       1.29980000       0.87790000
H        1.30700000      -2.02240000      -2.04980000
H        1.51280000      -3.99810000      -0.13760000
H       -1.39830000      -4.03390000      -0.10250000
H       -1.27920000      -2.06580000      -2.02550000
