23
Properties=species:S:1:pos:R:3 gdb_121532=T pbc="F F F"
C        0.12420000       1.35590000      -0.67060000
C        0.00780000       0.03180000       0.06440000
O       -1.32590000      -0.42440000      -0.04460000
C       -1.52890000      -1.66010000       0.61450000
C       -2.91460000      -2.08710000       0.47370000
C       -4.05620000      -2.45490000       0.36730000
C       -5.44130000      -2.90910000       0.24170000
C       -5.52930000      -4.21320000      -0.57590000
C       -6.10420000      -3.06650000       1.62460000
H        1.14700000       1.73920000      -0.60640000
H       -0.13600000       1.23220000      -1.72560000
H       -0.55330000       2.09600000      -0.23560000
H        0.70170000      -0.71220000      -0.36400000
H        0.28430000       0.15180000       1.12640000
H       -0.85520000      -2.43020000       0.19830000
H       -1.27160000      -1.56890000       1.68480000
H       -5.99250000      -2.13240000      -0.30700000
H       -4.99900000      -5.02370000      -0.06620000
H       -6.57470000      -4.51320000      -0.70100000
H       -5.08380000      -4.08710000      -1.56600000
H       -5.59360000      -3.83680000       2.21110000
H       -6.06530000      -2.13070000       2.18800000
H       -7.15270000      -3.36060000       1.51180000
