15
Properties=species:S:1:pos:R:3 gdb_128701=T pbc="F F F"
C       -0.01690000       1.37400000       0.02740000
O        0.02740000      -0.05290000       0.04240000
C        0.63070000      -0.63370000       1.07580000
N        1.15090000       0.09010000       2.01980000
N        1.74530000      -0.57340000       3.03300000
N        1.86080000      -1.88160000       3.17930000
C        1.34420000      -2.62090000       2.24080000
C        0.66050000      -2.10650000       1.06390000
N        0.12920000      -2.77270000       0.10180000
H        0.99280000       1.79560000       0.02080000
H       -0.54620000       1.63880000      -0.88790000
H       -0.55070000       1.75700000       0.90240000
H        2.14270000       0.00030000       3.75660000
H        1.44550000      -3.69430000       2.37170000
H        0.24930000      -3.77530000       0.26840000
