16
Properties=species:S:1:pos:R:3 gdb_27360=T pbc="F F F"
C       -0.01390000       1.43920000       0.11670000
C        0.00930000      -0.04550000      -0.05370000
N       -0.04840000      -0.62760000      -1.17810000
C       -0.02530000      -2.04940000      -1.24230000
N       -0.08780000      -2.67330000      -2.35800000
C        0.06550000      -2.74310000       0.02760000
C        0.13670000      -2.03770000       1.17110000
N        0.30680000      -2.51070000       2.45140000
O        0.10330000      -0.67050000       1.17090000
H        0.89540000       1.77740000       0.62410000
H       -0.08900000       1.91290000      -0.86070000
H       -0.86370000       1.73770000       0.73920000
H       -0.14970000      -1.98520000      -3.11080000
H        0.08250000      -3.82440000       0.03870000
H        0.08180000      -3.48610000       2.57600000
H       -0.07370000      -1.91460000       3.17250000
