14
Properties=species:S:1:pos:R:3 gdb_24376=T pbc="F F F"
C       -0.01770000       1.48270000       0.12330000
O        1.26040000       2.01100000      -0.34960000
C        2.25750000       1.21620000      -0.77700000
N        2.29790000      -0.06030000      -0.85420000
C        1.11750000      -0.63740000      -0.42130000
C        0.00040000      -0.00640000       0.04490000
N       -0.97570000      -0.90470000       0.38280000
C       -0.44560000      -2.08390000       0.11940000
N        0.82730000      -1.97960000      -0.37250000
H       -0.15330000       1.85890000       1.14510000
H       -0.79560000       1.93780000      -0.50270000
H        3.10890000       1.81870000      -1.08030000
H       -0.92940000      -3.03780000       0.26250000
H        1.44280000      -2.72690000      -0.64860000
