15
Properties=species:S:1:pos:R:3 gdb_35451=T pbc="F F F"
C       -0.03600000      -1.22520000      -0.12630000
C       -0.00690000      -0.02910000      -0.01600000
C        0.03860000       1.41750000       0.10050000
N       -0.13460000       1.97560000       1.49620000
C        1.09320000       2.76770000       1.34000000
C        2.25360000       1.84740000       1.21310000
C        1.41340000       2.12530000      -0.02360000
C        1.93510000       2.67090000      -1.22690000
N        2.34260000       3.12600000      -2.21100000
H       -0.06280000      -2.28280000      -0.22240000
H       -0.66610000       1.87700000      -0.59950000
H       -0.95950000       2.56540000       1.52750000
H        1.16510000       3.80530000       1.64010000
H        3.23200000       2.31390000       1.18920000
H        2.20640000       0.86190000       1.66600000
