18
Properties=species:S:1:pos:R:3 gdb_78182=T pbc="F F F"
C        0.06140000       1.52850000      -0.02200000
N        0.07670000       0.07510000       0.02240000
C        0.51600000      -0.59500000      -1.19620000
C        1.13600000      -1.91510000      -0.73370000
O        1.33740000      -2.88230000      -1.42380000
C        1.39960000      -1.80350000       0.73610000
C        2.23500000      -0.59630000       1.18870000
O        2.96330000       0.16910000       0.27970000
C        0.74130000      -0.50420000       1.16590000
H        1.05640000       1.96860000      -0.19310000
H       -0.61000000       1.86100000      -0.82040000
H       -0.33060000       1.91640000       0.92390000
H       -0.31460000      -0.78320000      -1.88630000
H        1.29210000      -0.03560000      -1.74340000
H        1.42180000      -2.71210000       1.32390000
H        2.70500000      -0.72970000       2.16360000
H        3.74020000      -0.33290000       0.00850000
H        0.20580000      -0.41680000       2.10720000
