15
Properties=species:S:1:pos:R:3 gdb_29009=T pbc="F F F"
C       -0.03090000       1.51520000      -0.05140000
C       -0.00870000       0.01010000       0.01300000
N       -0.02690000      -0.63430000      -1.16130000
C       -0.00770000      -1.96630000      -1.12660000
N        0.02800000      -2.75270000      -0.04700000
C        0.04600000      -2.10820000       1.11700000
C        0.02920000      -0.71400000       1.21800000
C        0.05150000      -0.08380000       2.55880000
O        0.08380000      -0.70950000       3.59350000
H        0.85630000       1.95050000       0.42000000
H       -0.06020000       1.82130000      -1.09730000
H       -0.90610000       1.92640000       0.46230000
H       -0.02310000      -2.47050000      -2.09030000
H        0.07520000      -2.70390000       2.02540000
H        0.03690000       1.02520000       2.56930000
