16
Properties=species:S:1:pos:R:3 gdb_51140=T pbc="F F F"
N        0.35640000       1.15170000       0.02640000
C        0.16830000      -0.08390000       0.10560000
O        1.04860000      -1.12780000       0.38610000
C        0.00620000      -2.08750000       0.06050000
C       -1.10690000      -1.94850000       1.03340000
C       -1.00310000      -0.97860000      -0.15510000
C       -2.09480000      -0.73020000      -1.16020000
C       -3.09550000       0.29980000      -0.65290000
O       -4.28740000       0.13450000      -0.65240000
H        1.32440000       1.40330000       0.23180000
H        0.28650000      -2.94390000      -0.53670000
H       -1.91760000      -2.66510000       0.93710000
H       -0.89610000      -1.61680000       2.04510000
H       -1.65200000      -0.33210000      -2.08380000
H       -2.63620000      -1.64820000      -1.40510000
H       -2.63320000       1.23810000      -0.27820000
