13
Properties=species:S:1:pos:R:3 gdb_18666=T pbc="F F F"
O        0.06070000      -0.01950000       0.25160000
C        0.04070000       1.14870000      -0.00230000
O       -1.18690000       1.73860000      -0.29210000
C       -1.24470000       2.95480000      -0.92910000
N       -0.29870000       3.74380000      -1.19470000
C        1.00470000       3.40930000      -0.73070000
C        1.23040000       3.33140000       0.74650000
C        1.21190000       2.04390000      -0.06160000
H       -2.27070000       3.17140000      -1.21160000
H        1.80590000       3.79640000      -1.34950000
H        2.19690000       3.63060000       1.13380000
H        0.38850000       3.54710000       1.39450000
H        2.14870000       1.51430000      -0.18140000
