19
Properties=species:S:1:pos:R:3 gdb_111583=T pbc="F F F"
C        0.28190000       1.25170000      -0.18230000
O       -0.29070000       0.04890000       0.28600000
C        0.51150000      -0.63330000       1.20070000
C        0.05230000      -2.06830000       1.53400000
C       -0.20720000      -2.90230000       0.25220000
C        1.31870000      -3.01220000       0.03360000
O        1.87100000      -1.79690000      -0.52670000
C        1.90880000      -1.17450000       0.77060000
C        1.56820000      -2.51120000       1.48770000
H        1.20980000       1.06800000      -0.74090000
H       -0.44620000       1.71670000      -0.85090000
H        0.49910000       1.94750000       0.64350000
H        0.64450000      -0.05460000       2.13290000
H       -0.61410000      -2.20130000       2.38510000
H       -0.63150000      -3.87920000       0.50540000
H       -0.78880000      -2.43740000      -0.54610000
H        1.73980000      -3.90390000      -0.43510000
H        2.79910000      -0.55800000       0.91020000
H        2.13920000      -3.00220000       2.27010000
