20
Properties=species:S:1:pos:R:3 gdb_52716=T pbc="F F F"
C       -0.01530000       1.44480000       0.22840000
C       -0.05130000      -0.00390000       0.08960000
C       -0.08020000      -1.20480000      -0.00240000
C       -0.13830000      -2.65770000      -0.17600000
O       -1.45510000      -3.09800000      -0.51160000
C        0.90230000      -3.13030000      -1.20870000
N        1.01060000      -4.57900000      -1.19870000
C        0.11610000      -5.31290000      -2.08530000
C        1.56640000      -5.19960000      -2.39790000
H        0.20120000       1.93460000      -0.72730000
H       -0.97350000       1.83170000       0.59210000
H        0.75730000       1.75240000       0.94150000
H        0.09270000      -3.15950000       0.77100000
H       -1.80000000      -2.48300000      -1.16820000
H        0.62640000      -2.72350000      -2.20020000
H        1.87770000      -2.70830000      -0.94160000
H       -0.29540000      -6.23330000      -1.68220000
H       -0.57510000      -4.73830000      -2.69720000
H        1.84880000      -4.54940000      -3.22490000
H        2.24070000      -6.03400000      -2.22700000
