21
Properties=species:S:1:pos:R:3 gdb_54147=T pbc="F F F"
C       -0.03830000       1.47310000      -0.12700000
C        0.04960000      -0.02850000       0.06330000
C       -1.06620000      -0.78690000      -0.63290000
N        1.42120000      -0.59640000       0.01050000
C        0.67380000      -0.62120000       1.28790000
C        1.23480000       0.22120000       2.42060000
C        0.08760000      -1.91630000       1.82570000
N        0.74870000      -3.06260000       1.45730000
O       -0.89410000      -1.92840000       2.54090000
H        0.83400000       1.98920000       0.27460000
H       -0.09790000       1.70910000      -1.19550000
H       -0.93700000       1.87410000       0.35410000
H       -1.06680000      -0.55710000      -1.70460000
H       -0.96590000      -1.86920000      -0.51730000
H       -2.04180000      -0.49910000      -0.22780000
H        1.37720000      -1.50580000      -0.44630000
H        1.66040000       1.15390000       2.05060000
H        0.44740000       0.44220000       3.14620000
H        2.03120000      -0.32280000       2.94120000
H        1.70190000      -3.01210000       1.13600000
H        0.47050000      -3.90860000       1.93200000
