21
Properties=species:S:1:pos:R:3 gdb_118535=T pbc="F F F"
C       -0.35550000       1.30320000      -0.79250000
O       -0.30740000      -0.09750000      -0.92880000
C        0.85010000      -0.66810000      -0.36210000
C        0.81730000      -2.18080000      -0.58390000
C        0.76660000      -2.51560000      -2.08970000
C        0.54160000      -3.92490000      -2.38400000
C        0.33860000      -5.08390000      -2.63280000
O        1.99150000      -2.68810000       0.02340000
C        1.82540000      -3.88610000       0.75710000
H       -0.35390000       1.60930000       0.26530000
H        0.49670000       1.79080000      -1.29140000
H       -1.28240000       1.64590000      -1.25840000
H        1.76370000      -0.25100000      -0.81880000
H        0.90320000      -0.46920000       0.71970000
H       -0.08020000      -2.58590000      -0.09670000
H       -0.02720000      -1.90950000      -2.54030000
H        1.71450000      -2.18850000      -2.53550000
H        0.16270000      -6.10620000      -2.85860000
H        2.80090000      -4.13140000       1.18510000
H        1.10310000      -3.76000000       1.57810000
H        1.49480000      -4.71500000       0.12050000
