21
Properties=species:S:1:pos:R:3 gdb_97803=T pbc="F F F"
C       -0.02800000       1.65620000      -0.16330000
C        0.01300000       0.12080000      -0.05680000
C       -1.31230000      -0.48500000       0.00880000
C       -2.41540000      -0.96930000       0.05290000
C       -3.74590000      -1.50950000       0.12710000
O       -4.20320000      -2.33230000      -0.96490000
C       -4.02130000      -2.95340000       0.30750000
C       -2.94040000      -3.99930000       0.41430000
C       -3.33130000      -5.30110000      -0.29570000
H        0.98710000       2.06120000      -0.21140000
H       -0.56790000       1.96870000      -1.06100000
H       -0.53250000       2.09260000       0.70300000
H        0.55330000      -0.29340000      -0.91770000
H        0.59110000      -0.17160000       0.82940000
H       -4.50230000      -0.81090000       0.48630000
H       -4.96120000      -3.20450000       0.80680000
H       -2.01560000      -3.59690000      -0.00970000
H       -2.74920000      -4.19170000       1.47800000
H       -2.53510000      -6.04680000      -0.21410000
H       -4.24050000      -5.73410000       0.13580000
H       -3.51910000      -5.11640000      -1.35740000
