14
Properties=species:S:1:pos:R:3 gdb_33269=T pbc="F F F"
N        0.07270000      -6.27990000      -0.04290000
C        0.06030000      -5.11580000      -0.03360000
C        0.04720000      -3.75770000      -0.02230000
C        0.03650000      -2.54060000      -0.01170000
C        0.02490000      -1.19240000       0.00040000
C        0.02320000       0.02270000       0.01690000
C        0.00950000       1.44560000       0.02820000
C        0.49370000       2.20460000       1.26150000
C        1.32390000       2.22250000       0.01930000
H       -0.81480000       1.89670000      -0.51630000
H       -0.06560000       3.09310000       1.53030000
H        0.83730000       1.61010000       2.09900000
H        2.23710000       1.64020000       0.00480000
H        1.34660000       3.12350000      -0.58250000
