18
Properties=species:S:1:pos:R:3 gdb_19169=T pbc="F F F"
C       -0.04220000       1.56930000      -0.17650000
C        0.02010000       0.04450000      -0.08690000
C        1.07640000      -0.79550000      -0.89910000
C        2.14600000      -0.54380000       0.23990000
C        2.97300000       0.73170000       0.39940000
C        0.79920000      -0.76760000       1.02570000
C        0.62450000      -1.92990000       0.03480000
O        0.31070000      -3.07940000       0.00630000
H        0.89990000       2.04400000      -0.44320000
H       -0.76810000       1.84610000      -0.94830000
H       -0.39290000       2.00390000       0.76590000
H       -1.00160000      -0.33260000      -0.20800000
H        1.23500000      -0.81180000      -1.97620000
H        2.83310000      -1.39260000       0.33070000
H        2.39820000       1.60870000       0.68990000
H        3.72240000       0.56840000       1.18090000
H        3.51560000       0.96490000      -0.52330000
H        0.64070000      -0.75080000       2.10280000
