12
Properties=species:S:1:pos:R:3 gdb_47=T pbc="F F F"
C       -0.02540000       1.54030000      -0.04220000
C        1.52560000       1.50420000       0.04120000
C        1.42150000       0.06150000       0.60840000
C       -0.02640000      -0.01070000       0.04940000
H       -0.46590000       1.99640000       0.84960000
H       -0.47900000       2.00030000      -0.92370000
H        1.98250000       1.51380000      -0.95300000
H        2.02190000       2.25990000       0.65520000
H        2.14290000      -0.67960000       0.25530000
H        1.43110000       0.05750000       1.70260000
H       -0.79050000      -0.48530000       0.67000000
H       -0.05230000      -0.47240000      -0.94240000
