17
Properties=species:S:1:pos:R:3 gdb_44804=T pbc="F F F"
O       -0.60410000       0.16550000      -0.88240000
C       -0.31060000       1.20150000      -0.36680000
C       -1.13780000       2.40550000       0.18840000
C        0.19840000       3.15230000       0.25750000
O        1.01510000       2.40870000       1.15890000
C        1.00010000       1.98750000      -0.22610000
C        2.27930000       1.83830000      -0.94760000
C        3.49510000       2.61690000      -0.50570000
C        3.43670000       1.13140000      -0.27580000
H       -1.84080000       2.76920000      -0.56710000
H       -1.64860000       2.26780000       1.14310000
H        0.41030000       4.20600000       0.12580000
H        2.15730000       1.66460000      -2.01210000
H        4.15400000       3.00000000      -1.27640000
H        3.38050000       3.25720000       0.36080000
H        3.28500000       0.78930000       0.74140000
H        4.05250000       0.48280000      -0.88770000
