16
Properties=species:S:1:pos:R:3 gdb_61146=T pbc="F F F"
C       -0.35480000       1.34240000       0.07310000
N       -0.08330000      -0.07600000      -0.07140000
C       -0.06490000      -0.88060000       1.14820000
C       -1.35670000      -0.90830000       1.83280000
C       -2.41450000      -0.91840000       2.40250000
C        0.16550000      -0.71120000      -1.26020000
O        0.40370000      -1.90490000      -1.35120000
C        0.13890000       0.12420000      -2.45410000
C        0.14320000       0.71820000      -3.49990000
H        0.42440000       1.82500000       0.67710000
H       -0.38020000       1.81380000      -0.90800000
H       -1.31940000       1.49460000       0.56880000
H        0.23480000      -1.88890000       0.85200000
H        0.70250000      -0.48660000       1.82910000
H       -3.35020000      -0.94510000       2.90430000
H        0.14670000       1.23970000      -4.42600000
