14
Properties=species:S:1:pos:R:3 gdb_124416=T pbc="F F F"
C       -0.05760000       1.57330000      -0.03240000
C       -0.02930000       0.02640000      -0.02710000
C       -1.39350000      -0.52100000       0.02640000
N       -2.46900000      -0.93730000       0.08650000
C        0.72170000      -0.52560000      -1.20440000
C        1.81600000      -1.32560000      -1.30760000
N        2.07730000      -1.46890000      -2.65000000
N        1.24580000      -0.83370000      -3.33940000
O        0.32660000      -0.19050000      -2.42940000
H        0.96470000       1.95830000      -0.01660000
H       -0.55930000       1.94170000      -0.92890000
H       -0.59010000       1.94020000       0.84730000
H        0.49040000      -0.31890000       0.87370000
H        2.41690000      -1.79820000      -0.55010000
