17
Properties=species:S:1:pos:R:3 gdb_29358=T pbc="F F F"
C        0.01850000       1.54470000       0.07670000
C        0.02360000       0.04870000       0.02000000
C       -0.00670000      -0.77240000      -1.11190000
N        0.02900000      -2.07680000      -0.68640000
C        0.07180000      -2.12000000       0.67270000
C        0.07170000      -0.81220000       1.14520000
N        0.18920000      -0.39110000       2.48190000
C       -0.06230000      -0.49480000      -2.52510000
O       -0.08150000      -1.36310000      -3.38360000
H        0.86170000       1.91750000       0.67020000
H        0.08660000       1.99240000      -0.91720000
H       -0.89690000       1.93230000       0.54400000
H        0.01810000      -2.84820000      -1.33290000
H        0.10660000      -3.05480000       1.21020000
H       -0.05150000      -1.11680000       3.14470000
H       -0.36970000       0.42970000       2.68020000
H       -0.08790000       0.58030000      -2.79740000
