16
Properties=species:S:1:pos:R:3 gdb_21072=T pbc="F F F"
C       -0.06880000       1.41440000      -0.02290000
N        0.00270000      -0.02530000       0.04120000
N        0.12860000      -0.76070000      -1.10010000
C        0.16460000      -2.02070000      -0.68280000
C        0.08720000      -2.11960000       0.72540000
N        0.09760000      -3.22690000       1.62370000
C       -0.00910000      -0.80250000       1.15100000
N       -0.18770000      -0.30070000       2.43980000
H        0.90800000       1.88330000       0.15060000
H       -0.41530000       1.68680000      -1.01990000
H       -0.77650000       1.77980000       0.72670000
H        0.25070000      -2.82050000      -1.40590000
H       -0.71820000      -3.81890000       1.49920000
H        0.91050000      -3.81710000       1.47770000
H       -0.13510000      -1.07560000       3.09410000
H        0.49470000       0.40300000       2.69960000
