18
Properties=species:S:1:pos:R:3 gdb_7046=T pbc="F F F"
C        0.04010000       1.50330000       0.11790000
C        0.04020000       0.04900000       0.04770000
C        0.04980000      -1.15270000      -0.01580000
C        0.03360000      -2.61980000      -0.07930000
C       -1.41290000      -3.16760000       0.01650000
C        0.71020000      -3.11830000      -1.28350000
C        1.24830000      -3.54640000      -2.27110000
C        1.90730000      -4.05390000      -3.46620000
H        0.58180000       1.86040000       1.00080000
H        0.51900000       1.94270000      -0.76420000
H       -0.97970000       1.90020000       0.17260000
H        0.58370000      -2.99880000       0.79510000
H       -2.00570000      -2.81940000      -0.83230000
H       -1.40030000      -4.26060000       0.00990000
H       -1.88450000      -2.81970000       0.93920000
H        2.77970000      -4.66590000      -3.21160000
H        1.22980000      -4.67540000      -4.06230000
H        2.25340000      -3.23460000      -4.10610000
