20
Properties=species:S:1:pos:R:3 gdb_89635=T pbc="F F F"
C       -0.07930000       1.58160000       0.22710000
C        0.00530000       0.06450000       0.14450000
C        0.80920000      -0.58300000      -1.04750000
C        1.70730000      -1.28110000      -0.01630000
N        2.33570000      -0.20800000       0.78350000
C        0.95740000      -0.65950000       1.11180000
C        2.33730000      -2.61840000      -0.12910000
C        3.78540000      -2.78550000      -0.33200000
O        3.19160000      -3.00040000       0.95420000
H        0.92290000       2.01800000       0.22500000
H       -0.63720000       1.99180000      -0.62180000
H       -0.58880000       1.89840000       1.14410000
H       -0.99290000      -0.38110000       0.19820000
H        0.20200000      -1.27380000      -1.63780000
H        1.33040000       0.10860000      -1.71470000
H        2.94930000      -0.68750000       1.44550000
H        0.73670000      -1.05420000       2.09680000
H        1.68170000      -3.41530000      -0.48410000
H        4.16280000      -3.68100000      -0.82230000
H        4.41540000      -1.90170000      -0.40990000
