17
Properties=species:S:1:pos:R:3 gdb_84966=T pbc="F F F"
C        0.23360000       1.53640000      -0.26880000
C        0.00290000       0.06800000       0.05960000
O        0.44480000      -0.73670000      -1.07510000
C        1.65040000      -1.31020000      -0.85680000
O        2.26470000      -1.92130000      -1.67810000
C        2.03200000      -1.04350000       0.61650000
O        3.10840000      -1.25870000       1.09850000
C        0.78880000      -0.47940000       1.27520000
C        1.05630000       0.44930000       2.45490000
H        1.30140000       1.76270000      -0.35830000
H       -0.24690000       1.77920000      -1.21970000
H       -0.19200000       2.17770000       0.50790000
H       -1.06780000      -0.12800000       0.15400000
H        0.24260000      -1.36630000       1.63320000
H        1.59450000       1.34880000       2.14580000
H        0.12550000       0.75390000       2.94160000
H        1.67730000      -0.06960000       3.18940000
