16
Properties=species:S:1:pos:R:3 gdb_27644=T pbc="F F F"
C       -0.01370000       1.49200000       0.04720000
C       -0.00990000       0.00290000      -0.02590000
N       -0.01280000      -0.71710000      -1.11550000
C        0.01520000      -2.04650000      -0.70120000
C        0.02580000      -3.15980000      -1.56900000
C        0.04000000      -4.14370000      -2.26660000
C        0.02510000      -2.10550000       0.67910000
N       -0.03420000      -3.17590000       1.56990000
N        0.01090000      -0.79950000       1.09920000
H        0.87990000       1.87950000       0.55080000
H       -0.03550000       1.88670000      -0.96920000
H       -0.88870000       1.87480000       0.58600000
H        0.04680000      -4.99530000      -2.89990000
H       -0.08080000      -4.04870000       1.05590000
H        0.75610000      -3.21500000       2.20610000
H       -0.06160000      -0.49860000       2.05710000
