22
Properties=species:S:1:pos:R:3 gdb_71256=T pbc="F F F"
C       -0.13900000       1.52450000       0.09340000
C       -0.01040000       0.02020000       0.04760000
C        0.90950000      -0.73860000      -0.93380000
N        0.89680000      -1.88340000       0.03470000
C       -0.59320000      -2.14200000       0.36280000
C       -0.27910000      -1.80540000       1.83270000
C        0.72570000      -0.85800000       1.17090000
C        1.93550000      -0.31280000       1.88190000
C       -1.28100000      -0.84370000      -0.11350000
H        0.83430000       2.01020000       0.22290000
H       -0.57840000       1.90930000      -0.83450000
H       -0.78440000       1.84550000       0.91920000
H        0.53470000      -0.95210000      -1.94100000
H        1.92730000      -0.34450000      -1.00290000
H       -0.99940000      -3.10360000       0.05210000
H       -1.08260000      -1.40700000       2.45750000
H        0.24620000      -2.61350000       2.34780000
H        2.48860000      -1.12060000       2.37100000
H        2.62120000       0.19970000       1.19950000
H        1.63380000       0.40820000       2.65050000
H       -2.11150000      -0.55120000       0.53590000
H       -1.64110000      -0.86520000      -1.14640000
