21
Properties=species:S:1:pos:R:3 gdb_87976=T pbc="F F F"
C       -0.27610000       1.45570000       0.10030000
C       -0.07330000      -0.03720000       0.14310000
O        1.26560000      -0.52010000      -0.04990000
C        0.64530000      -0.73320000       1.21980000
C        1.23630000      -0.03690000       2.44860000
O        1.45190000      -1.05380000       3.41520000
C        0.51860000      -2.11580000       3.17990000
C       -0.80520000      -1.87140000       3.90730000
C        0.38150000      -2.17500000       1.64830000
H        0.49830000       1.98030000       0.66530000
H       -0.24450000       1.81490000      -0.93360000
H       -1.25360000       1.72260000       0.51710000
H       -0.82360000      -0.61510000      -0.40180000
H        2.19570000       0.43430000       2.21720000
H        0.55440000       0.73680000       2.83450000
H        0.98790000      -3.02030000       3.57890000
H       -1.32570000      -0.99370000       3.50840000
H       -1.46990000      -2.73460000       3.79660000
H       -0.62530000      -1.70690000       4.97310000
H       -0.59070000      -2.54900000       1.31790000
H        1.15810000      -2.81110000       1.21330000
