14
Properties=species:S:1:pos:R:3 gdb_130709=T pbc="F F F"
O        0.01820000      -0.04710000       0.04180000
C        0.02340000       1.16430000       0.04570000
N       -1.04120000       2.05940000       0.07320000
N       -0.68900000       3.39840000       0.06930000
C        0.60870000       3.34250000       0.03940000
C        1.74230000       4.24780000       0.01640000
C        2.86020000       3.50060000      -0.01160000
C        2.54060000       2.01630000      -0.00900000
N        1.09410000       2.05470000       0.02420000
H       -2.01080000       1.79620000       0.09410000
H        1.66940000       5.32490000       0.02160000
H        3.87700000       3.86800000      -0.03380000
H        2.91460000       1.50240000      -0.90370000
H        2.95500000       1.49680000       0.86440000
