17
Properties=species:S:1:pos:R:3 gdb_11419=T pbc="F F F"
C        0.04600000       1.54980000       0.06450000
C       -0.01030000       0.02020000       0.04030000
C       -1.43380000      -0.54380000      -0.08140000
C       -1.49200000      -2.08660000      -0.00030000
O       -1.81830000      -2.38320000       1.36220000
C       -2.34650000      -1.26860000       1.95790000
O       -2.77370000      -1.25300000       3.07790000
N       -2.29880000      -0.23510000       1.04680000
H        1.07990000       1.90270000       0.11360000
H       -0.41060000       1.97910000      -0.83440000
H       -0.47570000       1.96150000       0.93520000
H        0.57140000      -0.35350000      -0.81210000
H        0.45580000      -0.39030000       0.94480000
H       -1.88410000      -0.19200000      -1.01710000
H       -2.27270000      -2.49690000      -0.65010000
H       -0.53800000      -2.56140000      -0.24070000
H       -2.41390000       0.70010000       1.40080000
