17
Properties=species:S:1:pos:R:3 gdb_2147=T pbc="F F F"
C       -0.08710000       1.59280000       0.04810000
C        0.08440000       0.07260000       0.01620000
C        0.91080000      -0.47160000      -1.13340000
C        1.66120000      -1.50910000      -0.76020000
C        1.46190000      -1.83290000       0.70380000
C        0.81870000      -0.53460000       1.25170000
O        1.80530000       0.34100000       1.78070000
H        0.87700000       2.10340000       0.11200000
H       -0.59880000       1.94130000      -0.85510000
H       -0.68100000       1.90340000       0.91320000
H       -0.91830000      -0.38100000      -0.03330000
H        0.85080000      -0.06650000      -2.13830000
H        2.30620000      -2.08740000      -1.41260000
H        0.79090000      -2.69540000       0.82460000
H        2.38330000      -2.06860000       1.24680000
H        0.13370000      -0.71960000       2.08320000
H        2.46040000       0.48500000       1.08760000
