23
Properties=species:S:1:pos:R:3 gdb_100751=T pbc="F F F"
C       -0.13230000       1.55310000      -0.12290000
C        0.03560000       0.02900000      -0.02790000
C        0.73550000      -0.52700000      -1.27510000
C        0.78880000      -0.41470000       1.24380000
O        2.12420000       0.08700000       1.30270000
C        0.05080000      -0.08200000       2.54820000
O       -1.27740000      -0.56530000       2.45260000
C        0.73760000      -0.69810000       3.76380000
O       -0.09370000      -0.38780000       4.88260000
H        0.83580000       2.06750000      -0.17610000
H       -0.67680000       1.81830000      -1.03430000
H       -0.69320000       1.95940000       0.72370000
H       -0.96290000      -0.41500000       0.04610000
H        1.76350000      -0.15720000      -1.34000000
H        0.77740000      -1.62120000      -1.25130000
H        0.20680000      -0.23140000      -2.18690000
H        0.90580000      -1.50460000       1.19640000
H        2.07580000       1.04910000       1.31820000
H        0.04920000       1.01420000       2.69040000
H       -1.61250000      -0.57370000       3.35850000
H        0.81430000      -1.78640000       3.62170000
H        1.74780000      -0.28770000       3.87920000
H        0.18650000      -0.92100000       5.63120000
