12
Properties=species:S:1:pos:R:3 gdb_130800=T pbc="F F F"
O       -0.02490000      -0.00190000       0.51160000
C       -0.04280000       1.16830000       0.26280000
O       -1.13830000       1.98680000       0.19960000
N       -0.69300000       3.29400000      -0.11830000
N        0.55090000       3.27570000      -0.23750000
N        1.00750000       2.02790000      -0.01560000
C        2.41470000       1.66280000      -0.10950000
C        2.92070000       1.65970000      -1.47680000
C        3.34910000       1.65970000      -2.59750000
H        2.99320000       2.34740000       0.51880000
H        2.47610000       0.66300000       0.33320000
H        3.72550000       1.65780000      -3.59120000
