16
Properties=species:S:1:pos:R:3 gdb_50821=T pbc="F F F"
N       -0.46520000       1.41210000       0.92100000
C       -0.16730000       0.26190000       0.50470000
O       -1.00370000      -0.49400000      -0.28430000
C       -2.32890000      -0.13710000      -0.39530000
O       -3.05020000      -0.71900000      -1.14180000
C        1.11520000      -0.49620000       0.74260000
C        2.10400000      -0.57810000      -0.44860000
C        3.03340000       0.24710000       0.46480000
O        2.04040000       0.27430000       1.52330000
H        0.31400000       1.75950000       1.48350000
H       -2.59590000       0.69320000       0.26950000
H        0.87890000      -1.46090000       1.20940000
H        2.44820000      -1.58330000      -0.68940000
H        1.77060000      -0.08070000      -1.35950000
H        3.94920000      -0.25620000       0.79120000
H        3.27940000       1.25590000       0.11700000
