18
Properties=species:S:1:pos:R:3 gdb_79944=T pbc="F F F"
C       -0.09810000       1.53770000      -0.08030000
C        0.03000000       0.04160000       0.06170000
N        1.30060000      -0.71300000      -0.15960000
C        2.47690000       0.06870000      -0.05560000
C        2.79260000       0.45300000       1.19470000
C        1.68720000       0.05510000       2.08750000
O        1.57430000       0.20870000       3.28480000
C        0.70460000      -0.69140000       1.19080000
C        0.10710000      -1.95250000       1.76460000
H        0.76610000       2.07670000       0.30930000
H       -0.23360000       1.80980000      -1.13250000
H       -0.98460000       1.87530000       0.46620000
H       -0.81580000      -0.50220000      -0.35730000
H        3.00960000       0.29470000      -0.97240000
H        3.66510000       1.00660000       1.51150000
H       -0.43000000      -1.70850000       2.68570000
H       -0.58240000      -2.42510000       1.06100000
H        0.89190000      -2.67250000       2.01580000
