15
Properties=species:S:1:pos:R:3 gdb_20826=T pbc="F F F"
C        0.04730000       1.54630000       0.13240000
C       -0.08620000       0.02400000      -0.04410000
C        0.64410000      -0.49620000      -1.24390000
C        0.17600000      -1.03190000      -2.40010000
O        1.17390000      -1.36690000      -3.23440000
N        2.38950000      -1.04600000      -2.62440000
C        2.05620000      -0.53960000      -1.46360000
O        2.97450000      -0.11280000      -0.57970000
H        1.09760000       1.83390000       0.23250000
H       -0.36760000       2.07800000      -0.72940000
H       -0.48440000       1.87970000       1.02870000
H        0.29580000      -0.47500000       0.85470000
H       -1.14370000      -0.25030000      -0.12340000
H       -0.82180000      -1.23550000      -2.75910000
H        3.84750000      -0.25840000      -0.96830000
