18
Properties=species:S:1:pos:R:3 gdb_42319=T pbc="F F F"
O       -0.01190000      -0.14740000       0.33980000
C       -0.09570000       1.03290000       0.11110000
C        1.10710000       1.77340000      -0.34590000
N        2.03790000       2.36400000      -0.69530000
C       -1.34100000       1.88160000       0.21690000
C       -1.77750000       2.40160000      -1.19690000
C       -3.31320000       2.39370000      -1.13140000
C       -3.62620000       1.12750000      -0.32170000
C       -2.56660000       1.12860000       0.79990000
H       -1.07480000       2.74590000       0.83690000
H       -1.34810000       3.37780000      -1.43030000
H       -1.44200000       1.70440000      -1.97390000
H       -3.66860000       3.28210000      -0.59500000
H       -3.77220000       2.40280000      -2.12380000
H       -4.64810000       1.10290000       0.06540000
H       -3.49790000       0.24380000      -0.95770000
H       -2.29300000       0.12250000       1.12200000
H       -2.93740000       1.66640000       1.67720000
