18
Properties=species:S:1:pos:R:3 gdb_32999=T pbc="F F F"
C        0.00440000       1.56890000      -0.06620000
C       -0.06590000       0.04550000      -0.02460000
N        0.71370000      -0.52680000      -1.10460000
C        0.82400000      -1.86370000      -1.35900000
N        1.40800000      -2.20420000      -2.51860000
C        1.54510000      -3.50690000      -2.75780000
C        1.10970000      -4.48350000      -1.86970000
N        0.51670000      -4.15060000      -0.71710000
C        0.37120000      -2.85880000      -0.46080000
H        1.03890000       1.91440000       0.02270000
H       -0.40760000       1.95540000      -1.00480000
H       -0.57320000       1.99960000       0.75540000
H        0.32510000      -0.31240000       0.93700000
H       -1.11650000      -0.28130000      -0.07800000
H        0.94660000       0.06320000      -1.88880000
H        2.01960000      -3.78030000      -3.69780000
H        1.23130000      -5.54050000      -2.08380000
H       -0.11290000      -2.59210000       0.47390000
