16
Properties=species:S:1:pos:R:3 gdb_65762=T pbc="F F F"
O       -0.09400000       1.46960000       0.14660000
C       -0.02430000       0.07830000       0.02590000
C        0.86310000      -0.56150000       1.09980000
C        2.26930000       0.00410000       1.13810000
O        2.58120000       1.09490000       0.72290000
C       -1.42340000      -0.54500000      -0.17310000
O       -1.03540000      -1.03230000      -1.49570000
C        0.21880000      -0.47160000      -1.38940000
N        1.18730000      -0.45320000      -2.18230000
H        0.82460000       1.78490000       0.15490000
H        0.42610000      -0.37870000       2.09340000
H        0.92020000      -1.64910000       0.97850000
H        3.02780000      -0.65000000       1.61700000
H       -1.70180000      -1.37200000       0.48460000
H       -2.22050000       0.19740000      -0.23900000
H        0.97020000      -0.92610000      -3.06170000
