19
Properties=species:S:1:pos:R:3 gdb_62912=T pbc="F F F"
C       -0.07310000       1.62170000      -0.20560000
C        0.04350000       0.10690000      -0.10880000
O       -1.25480000      -0.45500000      -0.24410000
C        1.22150000      -0.65900000      -0.81520000
C        2.14570000      -0.14780000       0.32880000
C        0.83240000      -0.59190000       1.03870000
C        0.89100000      -1.86020000       0.12290000
C       -0.31390000      -2.72820000      -0.15670000
O       -0.50700000      -3.25800000      -1.22490000
H        0.87270000       2.14780000      -0.07040000
H       -0.46720000       1.89930000      -1.19050000
H       -0.78240000       1.98230000       0.54500000
H       -1.53590000      -0.38090000      -1.16320000
H        1.44100000      -0.70470000      -1.88240000
H        3.02370000      -0.76320000       0.53380000
H        2.40200000       0.91050000       0.34770000
H        0.60500000      -0.55140000       2.10490000
H        1.74570000      -2.51630000       0.32870000
H       -0.96920000      -2.93270000       0.71800000
