16
Properties=species:S:1:pos:R:3 gdb_76392=T pbc="F F F"
N        0.07440000       0.94850000       0.07090000
H       -0.27340000       0.03410000      -0.20890000
H        1.06610000       0.85130000       0.26620000
H       -0.63620000       2.65660000      -0.63030000
C       -0.64390000       1.41080000       1.22750000
C       -1.42800000       0.36930000       2.06500000
O       -1.33090000      -0.95340000       1.66110000
C       -0.20620000       1.01460000       2.63130000
O        0.94490000       0.20980000       2.66570000
C       -1.28500000       2.76150000       1.10280000
O       -1.15840000       3.30590000      -0.11350000
O       -1.87300000       3.29550000       2.01180000
H       -2.41130000       0.66240000       2.41470000
H       -0.45500000      -1.25770000       1.94180000
H       -0.29980000       1.77540000       3.40010000
H        1.12290000      -0.01580000       3.58460000
