21
Properties=species:S:1:pos:R:3 gdb_66215=T pbc="F F F"
C        0.12280000       1.58520000       0.39350000
C       -0.01570000       0.11680000       0.05450000
C        1.14930000      -0.64210000      -0.53570000
C        0.68760000      -0.91260000       0.88440000
O       -1.29910000      -0.28220000      -0.35490000
C       -1.69380000       0.17630000      -1.63420000
C       -3.01440000      -0.52550000      -1.97250000
C       -3.54330000      -0.11350000      -3.26540000
C       -3.95550000       0.24520000      -4.33580000
H        1.11850000       1.79420000       0.79450000
H       -0.01840000       2.22280000      -0.48570000
H       -0.61810000       1.87320000       1.14670000
H        0.92500000      -1.39920000      -1.27860000
H        2.08810000      -0.12060000      -0.68900000
H        1.30740000      -0.57620000       1.70830000
H        0.15200000      -1.83770000       1.06240000
H       -1.84240000       1.26520000      -1.64480000
H       -0.93170000      -0.06400000      -2.38910000
H       -2.85110000      -1.60950000      -1.95430000
H       -3.73810000      -0.30760000      -1.17810000
H       -4.33200000       0.55310000      -5.27960000
