18
Properties=species:S:1:pos:R:3 gdb_55219=T pbc="F F F"
C       -0.06320000       1.48370000      -0.20300000
C       -0.00280000       0.02730000       0.21000000
O        0.98990000      -0.47770000       0.68050000
C       -1.28650000      -0.78440000       0.03490000
C       -1.81840000      -0.86130000      -1.42590000
C       -2.46730000      -2.25270000      -1.49330000
C       -1.69130000      -3.07560000      -0.45460000
O       -1.61700000      -4.28000000      -0.37740000
N       -1.10400000      -2.16970000       0.39070000
H       -0.19040000       1.56450000      -1.28840000
H       -0.92360000       1.98220000       0.25630000
H        0.85860000       1.98680000       0.08980000
H       -2.04730000      -0.30150000       0.67330000
H       -2.49880000      -0.04080000      -1.66080000
H       -0.97520000      -0.81190000      -2.12320000
H       -3.52270000      -2.22600000      -1.19840000
H       -2.40880000      -2.72780000      -2.47330000
H       -0.41350000      -2.44500000       1.07180000
