20
Properties=species:S:1:pos:R:3 gdb_121319=T pbc="F F F"
C        0.38590000       1.50670000      -0.30280000
C        0.26750000       0.01510000      -0.04320000
O        0.54390000      -0.66540000      -1.26520000
C        0.45240000      -2.07770000      -1.18550000
C        0.56170000      -2.65330000      -2.59800000
C        2.07720000      -2.86360000      -2.80810000
N        2.54610000      -3.08410000      -1.44950000
C        1.70930000      -2.62960000      -0.47010000
O        1.93770000      -2.61230000       0.72220000
H        1.39980000       1.76240000      -0.62410000
H       -0.31100000       1.82110000      -1.08520000
H        0.16120000       2.06760000       0.60930000
H        0.96330000      -0.30870000       0.73990000
H       -0.74990000      -0.24270000       0.29490000
H       -0.46030000      -2.37760000      -0.65400000
H        0.04680000      -3.61710000      -2.64120000
H        0.11860000      -1.98460000      -3.33720000
H        2.29340000      -3.72440000      -3.44810000
H        2.54610000      -1.97840000      -3.25730000
H        3.49930000      -3.32440000      -1.22540000
