18
Properties=species:S:1:pos:R:3 gdb_55974=T pbc="F F F"
C       -0.02570000       1.48870000       0.06750000
C        0.10090000      -0.01640000      -0.06240000
O        1.14030000      -0.56510000      -0.33840000
C       -1.19030000      -0.81440000       0.17460000
N       -1.02440000      -2.23010000       0.05990000
C       -0.60440000      -3.10450000      -1.04440000
C       -0.53520000      -4.26170000      -0.00620000
C       -0.92760000      -3.19350000       1.03880000
O       -1.09440000      -3.13960000       2.22910000
H        0.93530000       1.95930000      -0.14170000
H       -0.78390000       1.87300000      -0.62410000
H       -0.35350000       1.75510000       1.07870000
H       -1.55080000      -0.61010000       1.19050000
H       -1.96320000      -0.43950000      -0.51270000
H       -1.36070000      -3.21730000      -1.82870000
H        0.35380000      -2.81780000      -1.48230000
H       -1.26710000      -5.06090000      -0.13510000
H        0.45530000      -4.69120000       0.15090000
