21
Properties=species:S:1:pos:R:3 gdb_84720=T pbc="F F F"
C       -0.52770000       1.43580000      -0.05620000
C       -0.07010000      -0.03800000      -0.02260000
C        0.73410000      -0.42820000      -1.24310000
C        1.97200000       0.01740000      -1.52840000
C        2.84390000       0.80490000      -0.68940000
C        2.85550000       0.85380000       0.66980000
C        3.92370000       1.64160000       1.39180000
C        1.95770000       0.08150000       1.51010000
C        0.72670000      -0.37580000       1.21740000
H        0.32980000       2.11200000      -0.07370000
H       -1.13220000       1.62690000      -0.94900000
H       -1.13160000       1.66940000       0.82700000
H       -0.97470000      -0.65550000      -0.01070000
H        0.25210000      -1.09460000      -1.95460000
H        2.38810000      -0.25390000      -2.49740000
H        3.64020000       1.33550000      -1.20790000
H        4.60830000       2.12850000       0.69290000
H        3.48240000       2.41680000       2.03020000
H        4.51450000       0.99330000       2.05100000
H        2.35500000      -0.16720000       2.49380000
H        0.24280000      -1.02430000       1.94460000
