18
Properties=species:S:1:pos:R:3 gdb_71686=T pbc="F F F"
O       -0.12880000       1.34300000       0.07920000
C       -0.02580000      -0.04340000       0.00840000
C        0.43030000      -0.81260000      -1.26270000
C       -0.40810000      -1.93250000      -0.64720000
C       -1.34920000      -0.91280000       0.04690000
C       -1.16500000      -1.66030000       1.38460000
C       -0.34360000      -0.78630000       2.33530000
C        0.64620000      -0.81520000       1.15930000
N        0.13250000      -2.21040000       0.76320000
H        0.75970000       1.71490000       0.11750000
H       -0.04100000      -0.41220000      -2.16460000
H        1.50070000      -0.97560000      -1.42740000
H       -0.71390000      -2.83000000      -1.18100000
H       -2.26950000      -0.49350000      -0.35670000
H       -1.92140000      -2.37150000       1.71840000
H       -0.73870000       0.18460000       2.64220000
H        0.01730000      -1.35390000       3.19560000
H        1.72380000      -0.69430000       1.29200000
