17
Properties=species:S:1:pos:R:3 gdb_74603=T pbc="F F F"
C       -0.10560000       1.42990000       0.08360000
C        0.00550000      -0.05030000      -0.00650000
C       -0.03220000      -0.90400000      -1.04790000
C        0.14340000      -2.33510000      -0.47270000
C       -0.69510000      -2.29510000       0.84530000
C        0.41000000      -2.66440000       1.85930000
O        0.36980000      -1.31440000       2.53680000
C        0.20310000      -1.05810000       1.11810000
C        1.21360000      -2.13980000       0.64900000
H        0.79150000       1.86930000       0.53690000
H       -0.24360000       1.87630000      -0.90480000
H       -0.95100000       1.72760000       0.71610000
H       -0.15980000      -0.65600000      -2.09270000
H        0.14100000      -3.17810000      -1.16220000
H       -1.77600000      -2.33090000       0.98280000
H        0.54730000      -3.51760000       2.52020000
H        2.29150000      -2.00010000       0.56460000
