17
Properties=species:S:1:pos:R:3 gdb_70707=T pbc="F F F"
C       -0.02830000       1.52860000       0.03410000
C        0.14750000       0.03680000      -0.02910000
O       -0.74940000      -0.76620000       0.77830000
C        0.63460000      -0.76770000       1.11730000
C        1.37400000      -2.07490000       0.89340000
O        1.73220000      -2.30430000      -0.45630000
C        0.67610000      -2.07060000      -1.37490000
C        0.32880000      -0.58280000      -1.39580000
O        0.21210000       0.05810000      -2.41270000
H        0.86890000       2.03390000      -0.33520000
H       -0.86460000       1.83810000      -0.59770000
H       -0.21990000       1.84500000       1.06180000
H        0.86470000      -0.23600000       2.04150000
H        2.31260000      -2.07200000       1.45550000
H        0.74500000      -2.89530000       1.27650000
H        1.03380000      -2.36130000      -2.36390000
H       -0.21940000      -2.66010000      -1.12310000
