18
Properties=species:S:1:pos:R:3 gdb_56597=T pbc="F F F"
N       -0.15020000       1.56290000      -0.03830000
C       -0.00540000       0.10900000      -0.05650000
C       -1.30840000      -0.51610000       0.22130000
N       -2.31500000      -1.04290000       0.42970000
C        0.57970000      -0.48680000      -1.38160000
N       -0.17620000       0.03850000      -2.51050000
C        2.07600000      -0.19410000      -1.44000000
C        2.82620000      -0.10700000      -2.69590000
O        2.44490000       1.07940000      -1.98750000
H        0.75570000       1.99160000      -0.20550000
H       -0.75430000       1.83440000      -0.80980000
H        0.66000000      -0.17200000       0.77060000
H        0.45370000      -1.57510000      -1.33910000
H        0.28050000       0.87120000      -2.87010000
H       -0.24830000      -0.63470000      -3.26240000
H        2.63460000      -0.46310000      -0.54130000
H        3.89290000      -0.32130000      -2.70020000
H        2.31100000      -0.26330000      -3.64130000
