16
Properties=species:S:1:pos:R:3 gdb_34560=T pbc="F F F"
N        0.06760000      -1.12720000       0.08880000
C       -0.00910000       0.02780000       0.03380000
C       -0.05790000       1.44030000      -0.05150000
C       -1.14390000       2.23610000      -0.04010000
C       -0.61340000       3.65970000       0.00170000
C        0.64520000       3.53800000      -0.86950000
C        1.16980000       2.35090000      -0.02070000
C        1.12740000       3.02920000       1.38040000
O       -0.05000000       3.84720000       1.33050000
H       -2.17730000       1.93180000       0.05380000
H       -1.31710000       4.46750000      -0.18530000
H        0.44230000       3.26410000      -1.90550000
H        1.27660000       4.42860000      -0.82150000
H        2.12080000       1.89580000      -0.28890000
H        1.05080000       2.30670000       2.19970000
H        2.00740000       3.66290000       1.54240000
