20
Properties=species:S:1:pos:R:3 gdb_105273=T pbc="F F F"
O        0.21270000       1.51690000      -0.12750000
C        0.14320000       0.11580000      -0.27490000
C       -1.23350000      -0.49500000       0.01690000
C       -2.13740000       0.25030000       0.97670000
C       -2.46030000       0.20510000      -0.49740000
O       -2.28260000       1.34410000      -1.30890000
C       -1.20110000      -1.99880000      -0.02640000
C       -0.89360000      -2.79690000       1.18820000
N       -2.23590000      -2.84750000       0.58070000
H       -0.46020000       1.87710000      -0.72150000
H        0.45440000      -0.19830000      -1.28520000
H        0.86800000      -0.30810000       0.42950000
H       -2.78210000      -0.28520000       1.66740000
H       -1.72540000       1.17830000       1.35770000
H       -3.29350000      -0.42440000      -0.80730000
H       -2.98050000       1.97380000      -1.09740000
H       -0.85500000      -2.39120000      -0.98230000
H       -0.32030000      -3.71640000       1.11410000
H       -0.77050000      -2.25570000       2.12300000
H       -2.87960000      -2.28740000       1.13460000
