17
Properties=species:S:1:pos:R:3 gdb_78568=T pbc="F F F"
C        0.11090000       1.60350000       0.01090000
C        0.07830000       0.08230000       0.02300000
C        0.76280000      -0.72080000      -1.09660000
C        2.28110000      -0.78910000      -0.76220000
C        2.43800000      -0.21420000       0.60760000
O        3.36610000       0.21750000       1.23400000
C        1.02000000      -0.69190000       0.99960000
C        1.23220000      -1.76680000      -0.16230000
O        1.14470000      -3.12470000      -0.22160000
H        1.12910000       1.98370000      -0.11980000
H       -0.50320000       1.99900000      -0.80500000
H       -0.27900000       2.01000000       0.95000000
H       -0.94670000      -0.28500000       0.14020000
H        0.46080000      -0.83860000      -2.13030000
H        3.02010000      -0.98480000      -1.52700000
H        0.75940000      -0.87640000       2.03850000
H        1.88920000      -3.51030000       0.25540000
