18
Properties=species:S:1:pos:R:3 gdb_119505=T pbc="F F F"
C        0.47860000       1.53010000      -0.73320000
O        0.53680000       0.20400000      -1.20760000
C        0.26190000      -0.75530000      -0.20910000
C        0.41250000      -2.11600000      -0.80920000
N        1.50790000      -2.47000000      -1.73230000
C        0.09080000      -2.62210000      -2.15970000
C       -0.46360000      -3.94960000      -1.52680000
O        0.56160000      -4.56140000      -0.74420000
C       -0.14590000      -3.45750000      -0.18710000
H       -0.52380000       1.78200000      -0.35410000
H        1.20680000       1.70600000       0.07330000
H        0.71430000       2.18660000      -1.57370000
H        0.95470000      -0.63310000       0.64300000
H       -0.76080000      -0.62480000       0.18680000
H        1.81280000      -1.57780000      -2.12650000
H       -0.31230000      -2.09950000      -3.01610000
H       -1.26950000      -4.57250000      -1.89480000
H       -0.63440000      -3.58710000       0.77160000
