21
Properties=species:S:1:pos:R:3 gdb_93823=T pbc="F F F"
C        0.10040000       1.54000000      -0.07330000
C        0.08670000       0.01530000       0.03100000
O        0.70090000      -0.46360000      -1.15870000
C        0.92910000      -1.86390000      -1.13610000
C        2.00290000      -2.18340000      -0.09980000
O        3.29660000      -1.78100000      -0.55110000
C        1.63630000      -1.52290000       1.20560000
C        0.75860000      -0.51890000       1.28570000
C        0.35720000       0.10010000       2.59760000
H        1.12510000       1.91980000      -0.01790000
H       -0.32640000       1.83680000      -1.03450000
H       -0.48850000       1.99900000       0.72410000
H       -0.96910000      -0.32170000       0.04560000
H       -0.00280000      -2.40930000      -0.91350000
H        1.27240000      -2.14110000      -2.13630000
H        2.07460000      -3.26930000       0.03240000
H        3.23420000      -0.83100000      -0.70800000
H        2.13400000      -1.88500000       2.10210000
H        0.80210000      -0.44010000       3.43700000
H        0.66680000       1.14930000       2.66690000
H       -0.73290000       0.08620000       2.72500000
