17
Properties=species:S:1:pos:R:3 gdb_4774=T pbc="F F F"
C        0.14700000       1.56060000      -0.13540000
C       -0.06690000       0.05290000       0.08420000
C        0.57000000      -0.46050000       1.33010000
C        0.07290000      -1.01690000       2.46920000
C        1.19770000      -1.29780000       3.31970000
N        1.13710000      -1.94890000       4.56130000
C        2.29610000      -0.88490000       2.62730000
O        1.92320000      -0.37720000       1.40750000
H        1.21360000       1.79560000      -0.18480000
H       -0.31900000       1.88650000      -1.07030000
H       -0.28750000       2.14020000       0.68480000
H       -1.13680000      -0.17310000       0.13500000
H        0.32860000      -0.49640000      -0.78030000
H       -0.96600000      -1.21740000       2.68320000
H        0.33630000      -1.66150000       5.10950000
H        1.97600000      -1.82060000       5.11250000
H        3.35250000      -0.89070000       2.83570000
