21
Properties=species:S:1:pos:R:3 gdb_65597=T pbc="F F F"
C        0.11390000       1.51350000       0.01760000
C        0.01160000      -0.01050000       0.00500000
C        0.74130000      -0.67960000      -1.21100000
C        1.34360000      -1.98590000      -0.70330000
C        2.60740000      -1.88580000       0.11250000
C        1.27520000      -1.99390000       0.80980000
C        0.62890000      -0.69260000       1.27470000
C       -1.44360000      -0.44590000      -0.06310000
O       -2.39510000       0.29150000      -0.10220000
H        1.16220000       1.82480000       0.06660000
H       -0.33450000       1.94590000      -0.88120000
H       -0.41400000       1.93660000       0.87670000
H        0.04600000      -0.86040000      -2.03840000
H        1.50770000       0.00120000      -1.59800000
H        1.17270000      -2.89180000      -1.27370000
H        3.26370000      -2.74920000       0.13760000
H        3.12690000      -0.93150000       0.14100000
H        1.05390000      -2.90560000       1.35290000
H        1.35690000      -0.01630000       1.73640000
H       -0.13810000      -0.88180000       2.03410000
H       -1.58110000      -1.55340000      -0.07520000
