17
Properties=species:S:1:pos:R:3 gdb_29795=T pbc="F F F"
C        0.02790000       1.44700000       0.02790000
N        0.06250000       0.00620000      -0.02670000
C        0.13660000      -0.78820000      -1.18930000
C        0.14520000      -2.07220000      -0.77260000
O        0.20290000      -3.26240000      -1.41240000
N        0.07900000      -2.09730000       0.60830000
C        0.06330000      -3.26390000       1.46210000
C        0.02580000      -0.78780000       1.10000000
O       -0.03850000      -0.44630000       2.27040000
H        0.93110000       1.88530000      -0.41240000
H       -0.84810000       1.84600000      -0.49660000
H       -0.02810000       1.72650000       1.08130000
H        0.17480000      -0.36260000      -2.17590000
H        0.24380000      -3.10390000      -2.36090000
H       -0.80250000      -3.89880000       1.25060000
H        0.97340000      -3.85870000       1.33810000
H        0.00450000      -2.89530000       2.48750000
