20
Properties=species:S:1:pos:R:3 gdb_116040=T pbc="F F F"
C        0.00070000       1.42240000      -0.14290000
O        0.00260000       0.03400000       0.09460000
C       -1.27140000      -0.58180000       0.05550000
C       -1.75280000      -0.78900000      -1.38130000
O       -0.90040000      -1.69190000      -2.09330000
C       -0.37750000      -2.70840000      -1.36430000
N       -0.45780000      -2.93250000      -0.12480000
C       -1.16040000      -1.96300000       0.72350000
C       -0.48410000      -1.90880000       2.09350000
H        1.02460000       1.77310000       0.00650000
H       -0.30560000       1.68050000      -1.16730000
H       -0.66230000       1.95200000       0.55910000
H       -2.00860000       0.03780000       0.59270000
H       -2.77660000      -1.18540000      -1.37690000
H       -1.75090000       0.13920000      -1.95700000
H        0.17670000      -3.37810000      -2.01950000
H       -2.18650000      -2.33130000       0.86510000
H        0.53600000      -1.53290000       1.99820000
H       -1.03500000      -1.25180000       2.77510000
H       -0.44920000      -2.91260000       2.52340000
