17
Properties=species:S:1:pos:R:3 gdb_73750=T pbc="F F F"
C       -0.01700000       1.46590000       0.08200000
C        0.00390000      -0.01530000       0.01330000
C       -0.00900000      -0.86730000      -1.03020000
C       -0.05650000      -0.61040000      -2.41350000
N       -0.10390000      -0.41420000      -3.55590000
C        0.05680000      -2.24110000      -0.33610000
C       -1.00780000      -2.04460000       0.78720000
C        0.07050000      -0.98920000       1.19830000
N        1.15000000      -1.93350000       0.67820000
H        0.88750000       1.84230000       0.57590000
H       -0.07840000       1.91060000      -0.91400000
H       -0.86870000       1.82130000       0.67560000
H        0.14550000      -3.13460000      -0.95110000
H       -2.01020000      -1.70330000       0.51210000
H       -1.05870000      -2.88850000       1.48240000
H        0.17340000      -0.58160000       2.20350000
H        1.18830000      -2.72640000       1.32590000
