21
Properties=species:S:1:pos:R:3 gdb_60599=T pbc="F F F"
O       -0.42090000       1.28880000      -0.05820000
C       -0.09850000      -0.09060000      -0.01810000
C        0.66200000      -0.48190000      -1.27940000
C        0.38620000       0.14940000      -2.57240000
O        1.52860000       0.54170000      -1.79170000
C        0.67790000      -0.47390000       1.24450000
C        1.98800000       0.28600000       1.60670000
C        1.55120000       0.24180000       3.09540000
C        0.10120000      -0.04690000       2.62210000
H        0.35640000       1.72570000      -0.43430000
H       -1.05650000      -0.63000000      -0.01060000
H        1.10370000      -1.47870000      -1.27420000
H        0.62160000      -0.38000000      -3.49350000
H       -0.40130000       0.89600000      -2.63750000
H        0.86090000      -1.55550000       1.22590000
H        2.93930000      -0.17500000       1.33160000
H        1.97250000       1.30890000       1.22030000
H        1.98590000      -0.61480000       3.61910000
H        1.71830000       1.13730000       3.69840000
H       -0.47830000       0.87400000       2.51790000
H       -0.48700000      -0.78050000       3.17920000
