17
Properties=species:S:1:pos:R:3 gdb_30342=T pbc="F F F"
C       -0.05720000       1.56140000      -0.02150000
C        0.00150000       0.04050000       0.05440000
C        0.77640000      -0.62110000      -1.12440000
O        1.48370000      -1.75260000      -0.57960000
C        1.59290000      -1.51430000       0.75290000
C        2.21440000      -2.01510000       1.86040000
N        1.78900000      -1.28410000       2.96140000
C        0.94130000      -0.38510000       2.52050000
N        0.80100000      -0.47670000       1.15730000
H        0.95000000       1.98650000      -0.05920000
H       -0.60360000       1.87410000      -0.91680000
H       -0.57650000       1.97710000       0.84650000
H       -1.01640000      -0.36630000       0.11770000
H        0.12410000      -0.97740000      -1.92330000
H        1.50490000       0.08790000      -1.53930000
H        2.91970000      -2.82420000       1.94550000
H        0.43070000       0.35600000       3.11520000
