18
Properties=species:S:1:pos:R:3 gdb_47607=T pbc="F F F"
O       -0.04120000      -0.04920000       0.28850000
C       -0.05460000       1.15440000       0.10500000
N       -1.20950000       1.87340000      -0.01190000
C       -1.29260000       3.32530000      -0.12650000
C       -0.20490000       3.97990000       0.73110000
C        1.16560000       3.48090000       0.27560000
O        2.12010000       3.33580000       1.34890000
C        2.21260000       1.90520000       1.15060000
C        1.22190000       1.96480000      -0.03110000
H       -2.05750000       1.33000000       0.04900000
H       -1.19800000       3.64640000      -1.17490000
H       -2.28520000       3.63710000       0.20960000
H       -0.27350000       5.07030000       0.67170000
H       -0.35070000       3.68940000       1.77650000
H        1.56580000       4.11820000      -0.52320000
H        3.23180000       1.59320000       0.89990000
H        1.86610000       1.33730000       2.02090000
H        1.67230000       1.71600000      -0.99450000
