19
Properties=species:S:1:pos:R:3 gdb_124600=T pbc="F F F"
C       -0.03100000       1.54910000       0.02160000
C       -0.07200000       0.01990000      -0.00540000
C        0.71310000      -0.61060000       1.15020000
N       -1.45760000      -0.45510000      -0.00010000
N       -2.33120000      -0.09820000       0.92230000
C       -3.42780000      -0.80000000       0.62270000
C       -3.15520000      -1.58400000      -0.51370000
N       -3.96000000      -2.51980000      -1.15770000
N       -1.89690000      -1.35130000      -0.89450000
H        1.00640000       1.89310000      -0.02240000
H       -0.57210000       1.97010000      -0.83010000
H       -0.48570000       1.92850000       0.94010000
H        0.32380000      -0.34480000      -0.95630000
H        0.29950000      -0.29170000       2.11100000
H        0.66970000      -1.70180000       1.09810000
H        1.76220000      -0.30320000       1.10390000
H       -4.32810000      -0.71320000       1.20970000
H       -4.93110000      -2.24560000      -1.21310000
H       -3.60440000      -2.75480000      -2.07510000
