19
Properties=species:S:1:pos:R:3 gdb_77821=T pbc="F F F"
C       -0.07550000       1.52580000      -0.07100000
C        0.06660000       0.02210000       0.03750000
C        1.37660000      -0.73070000      -0.19130000
C        2.62590000       0.08000000      -0.08300000
O        3.48740000       0.24870000      -0.89610000
O        2.68160000       0.65690000       1.16080000
C        1.66880000       0.12960000       2.02980000
C        0.72150000      -0.70850000       1.17570000
C        0.07310000      -1.90900000       1.82050000
H        0.79650000       2.05870000       0.31470000
H       -0.20880000       1.82270000      -1.11610000
H       -0.95460000       1.86800000       0.48600000
H       -0.77980000      -0.52010000      -0.37930000
H        1.39770000      -1.58920000      -0.84980000
H        2.15610000      -0.48850000       2.79300000
H        1.17700000       0.97160000       2.52810000
H       -0.59680000      -1.60660000       2.63400000
H       -0.52390000      -2.47000000       1.09540000
H        0.82170000      -2.59040000       2.23990000
