20
Properties=species:S:1:pos:R:3 gdb_26182=T pbc="F F F"
C       -0.03650000       1.52560000      -0.00620000
C       -0.02910000      -0.01340000       0.04740000
C        0.70270000      -0.52740000       1.30100000
C       -1.41710000      -0.56470000      -0.03340000
N       -1.93010000      -1.33140000      -0.94340000
C       -3.24880000      -1.54780000      -0.53880000
C       -4.18700000      -2.39270000      -1.33180000
C       -3.45100000      -0.87930000       0.62050000
O       -2.28590000      -0.24210000       0.96080000
H        0.98790000       1.91000000       0.01240000
H       -0.52130000       1.88790000      -0.91740000
H       -0.57170000       1.94210000       0.85260000
H        0.48030000      -0.39640000      -0.84220000
H        1.72890000      -0.14770000       1.32280000
H        0.19670000      -0.19230000       2.21160000
H        0.74210000      -1.62040000       1.31650000
H       -3.80110000      -3.41230000      -1.43650000
H       -5.16980000      -2.44400000      -0.85600000
H       -4.31430000      -1.99150000      -2.34290000
H       -4.28350000      -0.75070000       1.29070000
