13
Properties=species:S:1:pos:R:3 gdb_8786=T pbc="F F F"
C       -0.13090000       1.43020000      -0.00680000
N       -0.05850000      -0.01000000      -0.13150000
C        0.65630000      -0.60960000      -1.10830000
N        1.32230000       0.03530000      -1.99600000
C        0.57920000      -2.11780000      -1.03240000
O       -0.04780000      -2.72020000      -0.19670000
C        1.33870000      -2.83920000      -2.07200000
N        1.92100000      -3.44080000      -2.86980000
H        0.86550000       1.86080000       0.14040000
H       -0.55520000       1.88030000      -0.91080000
H       -0.76040000       1.67940000       0.84860000
H       -0.54410000      -0.61090000       0.51310000
H        1.79190000      -0.59730000      -2.64220000
