18
Properties=species:S:1:pos:R:3 gdb_108170=T pbc="F F F"
C        0.20030000       1.53500000       0.16330000
C       -0.14700000       0.06280000      -0.09350000
C        0.59360000      -0.51980000      -1.26290000
O        0.27730000       0.09290000      -2.51240000
C        0.36950000      -0.88320000      -3.44280000
N        0.62970000      -2.07320000      -3.06840000
C        0.83560000      -1.98950000      -1.64110000
C        1.98630000      -1.09630000      -1.20360000
O        2.95140000      -0.66650000      -2.10470000
H        1.26900000       1.65640000       0.36610000
H       -0.04710000       2.14860000      -0.70720000
H       -0.35600000       1.92140000       1.02240000
H        0.09370000      -0.54070000       0.78960000
H       -1.22500000      -0.04760000      -0.26280000
H        0.19190000      -0.56080000      -4.46130000
H        0.55070000      -2.85150000      -1.04880000
H        2.35140000      -1.28880000      -0.19490000
H        3.16510000      -1.40370000      -2.68830000
