17
Properties=species:S:1:pos:R:3 gdb_20253=T pbc="F F F"
C       -0.02510000       1.55510000       0.01590000
C        1.53000000       1.50520000       0.01100000
C        2.01960000       1.39020000       1.46050000
C        1.66280000      -0.03700000       1.82560000
C        1.78910000      -0.92540000       0.65920000
C        1.45510000       0.00430000      -0.51910000
C       -0.00220000       0.02290000      -0.00660000
N        0.42540000      -0.67940000       1.27830000
H       -0.51000000       2.06120000       0.85640000
H       -0.43390000       1.94240000      -0.92280000
H        2.06200000       2.24580000      -0.58670000
H        3.10640000       1.51560000       1.54600000
H        1.54780000       2.13850000       2.10650000
H        1.88820000      -0.40860000       2.82060000
H        2.24970000      -1.90680000       0.63470000
H        1.74860000      -0.21840000      -1.54200000
H       -0.81610000      -0.54320000      -0.46170000
