23
Properties=species:S:1:pos:R:3 gdb_80651=T pbc="F F F"
C       -0.15540000       1.54650000       0.01500000
C        0.04080000       0.02000000       0.01150000
C        0.76450000      -0.45510000      -1.26760000
C        1.09750000      -1.97130000      -1.17720000
C        2.34150000      -1.53060000      -0.34500000
C        2.29940000      -0.20630000      -1.16520000
C        1.87450000      -1.23280000       1.06240000
C        0.77690000      -0.49200000       1.24740000
C        0.21610000      -0.17110000       2.60450000
H        0.80530000       2.07140000       0.03410000
H       -0.69460000       1.86400000      -0.88400000
H       -0.73430000       1.87880000       0.88150000
H       -0.96460000      -0.43210000       0.01330000
H        0.24460000      -0.09510000      -2.16000000
H        0.37540000      -2.63370000      -0.69210000
H        1.37790000      -2.37740000      -2.15350000
H        3.24350000      -2.14390000      -0.37520000
H        2.78190000      -0.31160000      -2.14100000
H        2.65620000       0.70150000      -0.67300000
H        2.42690000      -1.63950000       1.90560000
H        0.77880000      -0.67710000       3.39400000
H        0.23850000       0.90490000       2.81610000
H       -0.83430000      -0.48110000       2.68490000
