18
Properties=species:S:1:pos:R:3 gdb_117739=T pbc="F F F"
C        0.32750000       0.94290000       0.41750000
O       -0.24990000       0.20280000      -0.64680000
C        0.64620000      -0.59940000      -1.37540000
C        0.57570000      -2.09360000      -0.95780000
C       -0.88040000      -2.61960000      -1.05570000
C        1.44080000      -2.94970000      -1.90370000
O        1.87550000      -2.55090000      -2.94850000
C        1.08040000      -2.30170000       0.40380000
N        1.50160000      -2.49350000       1.46360000
H        0.74720000       0.29590000       1.19690000
H        1.11610000       1.61520000       0.05050000
H       -0.47500000       1.54440000       0.85010000
H        0.36350000      -0.55070000      -2.43090000
H        1.67880000      -0.23860000      -1.29090000
H       -1.23050000      -2.52990000      -2.08790000
H       -0.94780000      -3.66560000      -0.74650000
H       -1.52130000      -2.01380000      -0.41380000
H        1.60510000      -3.99100000      -1.55350000
