17
Properties=species:S:1:pos:R:3 gdb_90798=T pbc="F F F"
O       -0.03870000       1.45650000      -0.02020000
C        0.03700000       0.04650000       0.01930000
C        0.67100000      -0.53840000       1.31520000
C       -0.23110000      -1.71520000       1.66990000
C       -1.24440000      -1.96460000       0.60850000
C       -1.70440000      -1.43690000       1.99700000
C       -2.16710000      -0.19490000       1.30640000
O       -3.01960000       0.60980000       1.55620000
C       -1.38240000      -0.53890000       0.00990000
H        0.85630000       1.80880000      -0.04090000
H        0.58010000      -0.33740000      -0.85930000
H        1.70160000      -0.86820000       1.15120000
H        0.68040000       0.22650000       2.09850000
H        0.17610000      -2.55920000       2.21640000
H       -1.51210000      -2.90400000       0.14750000
H       -2.20680000      -1.95880000       2.80250000
H       -1.93490000      -0.38780000      -0.91620000
