19
Properties=species:S:1:pos:R:3 gdb_84358=T pbc="F F F"
C       -0.11890000       1.60550000       0.02440000
C        0.02270000       0.07590000      -0.02830000
C        0.78070000      -0.46740000      -1.21340000
C        1.82170000      -1.22860000      -0.87490000
C        1.99550000      -1.36680000       0.61920000
C        1.84380000      -2.79610000       1.14550000
O        3.21110000      -0.78320000       1.08470000
C        0.83740000      -0.47190000       1.15460000
O        0.63040000      -0.25050000       2.31650000
H        0.85900000       2.09020000      -0.05160000
H       -0.74490000       1.96730000      -0.79690000
H       -0.57750000       1.90370000       0.97080000
H       -0.98480000      -0.36180000       0.03390000
H        0.48770000      -0.23740000      -2.23270000
H        2.50050000      -1.70770000      -1.57300000
H        2.65610000      -3.42990000       0.76810000
H        1.87690000      -2.78310000       2.23850000
H        0.89910000      -3.24550000       0.82540000
H        3.89870000      -1.45630000       1.04490000
