19
Properties=species:S:1:pos:R:3 gdb_97655=T pbc="F F F"
C       -0.08280000       1.53160000       0.30300000
C       -0.07920000       0.02540000       0.18380000
C        1.11280000      -0.70330000      -0.38300000
C        0.82200000      -0.81390000       1.09460000
O        1.75240000      -0.13760000       1.90410000
C        0.30180000      -2.03940000       1.63820000
C       -0.14430000      -3.05520000       2.11340000
C       -0.69790000      -4.26500000       2.71640000
O       -2.04270000      -4.12680000       3.15800000
H        0.89590000       1.89910000       0.62060000
H       -0.32820000       1.99640000      -0.65790000
H       -0.82570000       1.87040000       1.03380000
H       -1.04460000      -0.42580000      -0.02570000
H        0.95740000      -1.57900000      -1.00130000
H        1.98900000      -0.11180000      -0.62690000
H        1.31800000       0.06590000       2.74030000
H       -0.71040000      -5.07890000       1.98260000
H       -0.03830000      -4.59140000       3.53670000
H       -2.08340000      -3.33880000       3.70970000
