13
Properties=species:S:1:pos:R:3 gdb_132460=T pbc="F F F"
N        0.04090000       1.32350000      -0.01720000
C       -0.03140000      -0.03130000       0.01020000
N       -1.16070000      -0.65980000       0.08420000
C       -1.12530000      -2.04340000       0.15990000
C        0.03540000      -2.70420000       0.14980000
F        0.19460000      -4.00830000       0.22160000
O        1.23460000      -2.08660000       0.05840000
C        1.28460000      -0.71540000      -0.02970000
N        2.37330000      -0.07730000      -0.14680000
H        0.92810000       1.73250000      -0.26170000
H       -0.80940000       1.83710000      -0.17480000
H       -2.06460000      -2.57440000       0.22910000
H        3.18080000      -0.69930000      -0.16780000
