17
Properties=species:S:1:pos:R:3 gdb_85107=T pbc="F F F"
C       -0.35640000       1.46690000      -0.02840000
C        0.12260000       0.03460000      -0.04000000
O        1.39820000      -0.11610000      -0.75990000
C        2.01020000      -0.71280000       0.30300000
O        3.12430000      -1.11350000       0.38330000
C        0.77370000      -0.60400000       1.23550000
C        1.02130000       0.29860000       2.45320000
C        0.20390000      -1.88230000       1.62050000
C       -0.27770000      -2.93640000       1.93870000
H        0.39610000       2.14530000       0.37960000
H       -0.58630000       1.78740000      -1.04870000
H       -1.27000000       1.55400000       0.56830000
H       -0.61630000      -0.62950000      -0.49400000
H        1.49020000       1.24210000       2.16460000
H        0.08200000       0.51130000       2.97020000
H        1.68930000      -0.21370000       3.14930000
H       -0.69290000      -3.87290000       2.21960000
