17
Properties=species:S:1:pos:R:3 gdb_86837=T pbc="F F F"
C       -0.12990000       1.56780000      -0.02270000
C        0.05350000       0.05610000       0.02300000
N        0.82360000      -0.47670000      -1.10750000
C        1.39150000      -1.76980000      -0.70410000
C        1.84400000      -1.50150000       0.74520000
C        0.87440000      -0.41810000       1.22920000
O        0.77580000      -0.00510000       2.35220000
C        0.41450000      -2.88060000      -0.77220000
N       -0.37730000      -3.71900000      -0.85810000
H        0.83310000       2.06380000      -0.17030000
H       -0.79840000       1.86010000      -0.83760000
H       -0.56210000       1.90870000       0.92180000
H       -0.93560000      -0.42870000       0.12770000
H        0.27970000      -0.54620000      -1.95960000
H        2.23060000      -2.02870000      -1.35650000
H        1.83020000      -2.37590000       1.39640000
H        2.85590000      -1.08440000       0.74940000
