21
Properties=species:S:1:pos:R:3 gdb_103776=T pbc="F F F"
C        0.04850000       1.50140000      -0.14180000
C       -0.02450000       0.01720000       0.23590000
C       -1.42170000      -0.55880000       0.10150000
O       -2.37700000       0.00720000       0.95570000
C       -1.90770000      -1.05100000      -1.26170000
C       -1.60750000      -2.02340000      -0.15590000
C       -0.60410000      -3.16990000      -0.07900000
C       -1.76390000      -3.91570000       0.61520000
O       -2.64330000      -2.77660000       0.46800000
H        1.06610000       1.88770000      -0.03340000
H       -0.26410000       1.66300000      -1.17930000
H       -0.60000000       2.10090000       0.50580000
H        0.66490000      -0.55790000      -0.39330000
H        0.30750000      -0.11470000       1.27350000
H       -2.65920000       0.84490000       0.57370000
H       -2.96170000      -0.90510000      -1.47620000
H       -1.24390000      -0.99510000      -2.12000000
H       -0.29380000      -3.58230000      -1.04120000
H        0.27700000      -2.98630000       0.53890000
H       -2.14980000      -4.79550000       0.08840000
H       -1.60200000      -4.16720000       1.66950000
