21
Properties=species:S:1:pos:R:3 gdb_80545=T pbc="F F F"
C       -0.24060000       1.62080000      -0.13110000
C        0.01420000       0.12240000      -0.03920000
C        1.17100000      -0.58710000      -0.81620000
C        2.43530000       0.09360000      -0.25960000
C        2.08100000       0.07700000       1.27130000
O        2.01930000       1.35230000       1.89120000
C        0.69310000      -0.56880000       1.19310000
C        1.01490000      -1.75340000       0.21490000
O        0.02380000      -2.72280000      -0.00550000
H        0.64160000       2.21100000       0.11410000
H       -0.57770000       1.88690000      -1.13990000
H       -1.03090000       1.91610000       0.56790000
H       -0.93270000      -0.38690000      -0.25630000
H        1.12040000      -0.76480000      -1.89180000
H        3.34540000      -0.46960000      -0.48810000
H        2.56620000       1.11770000      -0.61940000
H        2.77210000      -0.56990000       1.83050000
H        2.91180000       1.71170000       1.91800000
H        0.17100000      -0.72980000       2.13670000
H        1.92400000      -2.32240000       0.43320000
H       -0.81460000      -2.28700000      -0.18680000
