19
Properties=species:S:1:pos:R:3 gdb_36339=T pbc="F F F"
C       -0.01000000      -1.14680000      -0.71900000
C       -0.02360000      -0.04350000      -0.24240000
C       -0.01460000       1.29620000       0.33860000
C        1.36710000       1.93410000       0.34850000
C        1.91580000       2.62170000      -0.89460000
C        1.52680000       3.41980000       0.30790000
C        0.49920000       4.53830000       0.46070000
C        1.60080000       5.21040000       1.30890000
O        2.49620000       4.09100000       1.11440000
H       -0.00510000      -2.12090000      -1.14080000
H       -0.70940000       1.93630000      -0.22120000
H       -0.40720000       1.24960000       1.36330000
H        2.10400000       1.41110000       0.95140000
H        2.97510000       2.51400000      -1.10110000
H        1.28250000       2.67370000      -1.77580000
H        0.23090000       5.05910000      -0.46020000
H       -0.41010000       4.27280000       1.00420000
H        2.01620000       6.13710000       0.89750000
H        1.36360000       5.36010000       2.36810000
