18
Properties=species:S:1:pos:R:3 gdb_16562=T pbc="F F F"
C       -0.00460000       1.54210000      -0.04380000
O        1.36080000       1.98160000      -0.08170000
C        2.17850000       0.82740000       0.16930000
C        1.42290000      -0.28720000      -0.56230000
C        0.02460000      -0.00580000       0.01910000
C       -0.02780000      -0.51660000       1.47320000
C        1.20280000      -0.09920000       2.24460000
C        2.22850000       0.51730000       1.65680000
H       -0.51750000       1.97580000       0.82450000
H       -0.50280000       1.90580000      -0.95070000
H        3.16930000       1.04700000      -0.23370000
H        1.45240000      -0.12220000      -1.64340000
H        1.79450000      -1.29030000      -0.33990000
H       -0.78640000      -0.44450000      -0.56740000
H       -0.92780000      -0.13530000       1.97480000
H       -0.12450000      -1.61260000       1.48890000
H        1.22170000      -0.31730000       3.30990000
H        3.09470000       0.83810000       2.22760000
