20
Properties=species:S:1:pos:R:3 gdb_111522=T pbc="F F F"
C       -0.25310000       1.42000000      -0.15230000
C        0.26490000      -0.00540000       0.06690000
C        0.90560000      -0.57920000      -1.17640000
C        0.88850000      -2.03970000      -1.42390000
N       -0.04350000      -1.09700000      -2.18000000
C        0.76320000      -1.35550000      -3.43030000
C        1.65080000      -2.35730000      -2.68630000
C        3.00410000      -2.87020000      -2.90380000
O        1.83980000      -3.67720000      -3.15270000
H        0.56120000       2.10130000      -0.42330000
H       -0.99040000       1.43730000      -0.96010000
H       -0.72670000       1.81160000       0.75290000
H        0.99780000      -0.02210000       0.88360000
H       -0.56140000      -0.65880000       0.36820000
H        1.76150000      -0.01410000      -1.55160000
H        0.52230000      -2.76740000      -0.70680000
H        0.14510000      -1.84420000      -4.18670000
H        1.23000000      -0.45930000      -3.85260000
H        3.56120000      -2.57420000      -3.79170000
H        3.61170000      -3.17760000      -2.05350000
