14
Properties=species:S:1:pos:R:3 gdb_31432=T pbc="F F F"
C       -0.03630000       1.39840000      -0.02030000
O        0.01700000      -0.03710000       0.02320000
C        0.63570000      -0.59250000       1.05820000
N        1.16540000       0.15290000       1.98460000
C        1.80190000      -0.42190000       3.04940000
O        2.32760000       0.13670000       3.96310000
O        1.85180000      -1.86200000       3.08680000
C        1.29500000      -2.57940000       2.11530000
C        0.66550000      -2.02590000       1.06180000
H        0.97140000       1.81830000      -0.04440000
H       -0.57840000       1.63570000      -0.93520000
H       -0.55970000       1.78870000       0.85500000
H        1.40750000      -3.64730000       2.27160000
H        0.21440000      -2.61020000       0.27450000
