17
Properties=species:S:1:pos:R:3 gdb_43060=T pbc="F F F"
O       -0.03510000       0.00340000      -0.13700000
C       -0.03110000       1.19400000       0.00160000
C       -1.13600000       2.26760000       0.02050000
C       -1.44140000       2.62190000       1.49530000
C       -0.23140000       3.44250000       1.90750000
C        0.31300000       4.23320000       0.75700000
C        1.13950000       3.09550000       1.34410000
C        1.04770000       2.26960000       0.02710000
C       -0.03480000       3.31170000      -0.43910000
H       -2.01880000       2.09090000      -0.59450000
H       -2.35240000       3.22720000       1.57110000
H       -1.58820000       1.72350000       2.10380000
H       -0.21110000       3.89570000       2.89330000
H        0.48730000       5.30050000       0.74290000
H        2.02310000       3.13630000       1.96870000
H        1.99940000       2.11610000      -0.48210000
H       -0.06730000       3.68240000      -1.45950000
