16
Properties=species:S:1:pos:R:3 gdb_50237=T pbc="F F F"
O       -0.05890000      -0.14730000       0.24370000
C       -0.03090000       1.01160000      -0.06780000
C        1.23430000       1.84850000      -0.13760000
O        2.40200000       1.12730000      -0.59280000
C        2.61080000       2.06990000      -1.65580000
C        1.91650000       1.78020000      -3.01420000
N        0.59120000       1.19750000      -2.71360000
C        0.76380000       2.65550000      -2.62460000
C        1.39890000       2.93190000      -1.24150000
H       -0.96250000       1.60110000      -0.24450000
H        1.40200000       2.26360000       0.86940000
H        3.63420000       2.44570000      -1.71710000
H        2.38250000       1.61200000      -3.97740000
H        0.13990000       0.97420000      -3.59850000
H        0.16430000       3.33400000      -3.21800000
H        1.49730000       3.97130000      -0.93800000
