15
Properties=species:S:1:pos:R:3 gdb_80820=T pbc="F F F"
O        0.11650000       1.42660000      -0.11670000
C        0.12040000       0.04710000      -0.06760000
C       -0.01750000      -0.64390000       1.31950000
O       -1.42250000      -0.15530000       1.37440000
C       -1.26990000      -0.69250000      -0.01570000
C       -2.37300000      -0.64800000      -0.91760000
C       -3.27660000      -0.62930000      -1.71160000
C       -0.54790000      -1.91910000       0.64620000
O        0.36730000      -2.68260000      -0.07390000
H       -0.56650000       1.70920000       0.50890000
H        0.86220000      -0.34410000      -0.76150000
H        0.58150000      -0.53310000       2.22190000
H       -4.07720000      -0.60420000      -2.40940000
H       -1.22390000      -2.49760000       1.28340000
H       -0.11120000      -3.37570000      -0.54000000
