18
Properties=species:S:1:pos:R:3 gdb_31189=T pbc="F F F"
C       -0.36930000       1.55590000      -0.11470000
C        0.08850000       0.09230000       0.02760000
C        0.81050000      -0.43250000      -1.17080000
C        2.16030000      -0.70940000      -1.35990000
C        2.31910000      -1.16840000      -2.70940000
C        1.08130000      -1.15730000      -3.29340000
N        0.17940000      -0.70960000      -2.35430000
C        3.17510000      -0.56040000      -0.38650000
C        4.04450000      -0.43680000       0.43990000
H        0.48790000       2.21450000      -0.28100000
H       -1.05400000       1.68200000      -0.96020000
H       -0.88940000       1.88910000       0.78880000
H        0.76350000       0.00200000       0.88360000
H       -0.78160000      -0.54100000       0.24890000
H        3.24650000      -1.46840000      -3.17020000
H        0.76110000      -1.42970000      -4.28580000
H       -0.80920000      -0.60920000      -2.50780000
H        4.81090000      -0.32780000       1.16570000
