15
Properties=species:S:1:pos:R:3 gdb_7338=T pbc="F F F"
C        0.00930000       1.38090000      -0.03930000
O       -0.00030000      -0.02860000       0.00260000
C        0.62900000      -0.60350000      -1.10010000
C        0.58190000      -2.11170000      -0.99020000
O        0.07390000      -2.71940000      -0.08030000
C        1.25490000      -2.85300000      -2.16770000
N        1.18890000      -4.19350000      -2.02860000
O        1.77000000      -2.24630000      -3.08870000
H        1.03480000       1.78200000      -0.04750000
H       -0.51780000       1.76650000      -0.92580000
H       -0.50240000       1.73270000       0.85900000
H        0.16020000      -0.31720000      -2.05820000
H        1.68730000      -0.30200000      -1.19450000
H        0.73320000      -4.57340000      -1.21430000
H        1.59080000      -4.79530000      -2.72700000
