14
Properties=species:S:1:pos:R:3 gdb_4982=T pbc="F F F"
N        0.03070000       1.43030000       0.08300000
C       -0.00340000       0.02540000       0.01650000
C       -1.15480000      -0.74070000       0.06310000
N       -1.15020000      -2.08270000       0.03910000
C        0.04700000      -2.64770000      -0.05030000
N        1.23060000      -2.02720000      -0.08590000
C        1.21030000      -0.69780000      -0.04040000
N        2.40840000      -0.01500000      -0.09700000
H        0.60810000       1.83700000      -0.64600000
H       -0.89290000       1.84460000       0.04740000
H       -2.12880000      -0.25540000       0.12290000
H        0.07600000      -3.73370000      -0.09010000
H        3.21070000      -0.61090000       0.05360000
H        2.43100000       0.84590000       0.43320000
