21
Properties=species:S:1:pos:R:3 gdb_118301=T pbc="F F F"
C       -0.30380000       1.35470000      -0.09230000
O       -0.10700000      -0.04110000      -0.07330000
C        0.75980000      -0.50420000      -1.09130000
C        0.74500000      -2.02810000      -1.01640000
O       -0.58720000      -2.49990000      -1.13670000
C        1.57360000      -2.66910000      -2.12630000
C        1.58020000      -4.20450000      -2.03200000
C        2.23280000      -4.84060000      -3.23450000
O        3.15090000      -5.61900000      -3.19790000
H        0.63990000       1.89820000       0.06670000
H       -0.73920000       1.69030000      -1.04590000
H       -0.99310000       1.59870000       0.71940000
H        0.40010000      -0.17370000      -2.07980000
H        1.77940000      -0.11190000      -0.94670000
H        1.16320000      -2.31890000      -0.03730000
H       -1.11700000      -1.94090000      -0.55500000
H        1.15590000      -2.36130000      -3.09350000
H        2.59980000      -2.28650000      -2.07700000
H        2.09030000      -4.55180000      -1.12870000
H        0.53720000      -4.54510000      -1.99310000
H        1.78990000      -4.52700000      -4.21060000
