19
Properties=species:S:1:pos:R:3 gdb_80411=T pbc="F F F"
C       -0.15300000       1.52440000       0.02760000
C        0.07170000       0.01330000      -0.03270000
C        0.99340000      -0.53870000      -1.15330000
C        1.21680000      -2.00840000      -0.69500000
C        2.01040000      -1.30890000       0.46410000
O        2.88830000      -1.94750000       1.30550000
C        2.42530000      -0.24600000      -0.61600000
C        0.88470000      -0.55380000       1.14010000
O        0.73670000      -0.44860000       2.33290000
H        0.79000000       2.07860000      -0.00050000
H       -0.76520000       1.85920000      -0.81530000
H       -0.66920000       1.79200000       0.95390000
H       -0.90280000      -0.49200000      -0.05660000
H        0.71950000      -0.30550000      -2.18010000
H        0.34380000      -2.61500000      -0.43670000
H        1.89030000      -2.56300000      -1.35150000
H        2.58690000      -1.74970000       2.20660000
H        3.20830000      -0.63820000      -1.26800000
H        2.67770000       0.76460000      -0.28530000
