20
Properties=species:S:1:pos:R:3 gdb_26183=T pbc="F F F"
C       -0.01030000       1.57470000       0.26030000
C       -0.06690000       0.05710000       0.00360000
C        0.81450000      -0.71120000       1.00570000
C       -1.47810000      -0.45530000      -0.01240000
N       -2.08260000      -0.99780000      -1.05460000
C       -3.35100000      -1.31980000      -0.63630000
N       -4.26900000      -1.85960000      -1.54400000
C       -3.52680000      -0.97280000       0.68060000
N       -2.31000000      -0.42020000       1.06200000
H        1.02050000       1.93840000       0.19680000
H       -0.61320000       2.12050000      -0.47050000
H       -0.38610000       1.82540000       1.25950000
H        0.31010000      -0.13560000      -1.00560000
H        0.47530000      -0.55780000       2.03710000
H        0.79690000      -1.78590000       0.80410000
H        1.85250000      -0.36770000       0.94860000
H       -3.78330000      -2.27030000      -2.33130000
H       -4.89310000      -2.53840000      -1.12870000
H       -4.36050000      -1.04940000       1.35700000
H       -2.09020000      -0.06320000       1.97580000
