17
Properties=species:S:1:pos:R:3 gdb_69588=T pbc="F F F"
O       -0.04050000       1.41810000       0.02720000
C       -0.00820000       0.02530000       0.04720000
C       -0.42750000      -0.77320000      -1.16710000
C       -1.29090000      -0.76890000       0.08530000
C       -1.07240000      -1.88290000       1.07770000
C       -2.14010000      -2.48670000       1.89040000
O       -1.57770000      -3.19900000       0.78980000
C        0.34560000      -1.75370000       1.53500000
C        0.92560000      -0.68390000       0.98730000
H        0.63860000       1.72450000      -0.58340000
H       -0.82650000      -0.20480000      -2.00120000
H        0.12220000      -1.67030000      -1.43020000
H       -2.24830000      -0.26600000       0.03820000
H       -1.91160000      -2.88510000       2.87870000
H       -3.16700000      -2.14630000       1.75490000
H        0.80810000      -2.48330000       2.18830000
H        1.94580000      -0.35480000       1.14870000
