19
Properties=species:S:1:pos:R:3 gdb_114015=T pbc="F F F"
C       -0.08250000       1.21310000      -0.60980000
O       -0.11870000       0.23760000       0.41510000
C       -1.28130000      -0.52730000       0.39650000
C       -1.37600000      -1.70990000      -0.53260000
C       -1.18900000      -1.91650000       0.95990000
C        0.13110000      -2.42170000       1.47700000
O        0.25930000      -3.83710000       1.24950000
C        0.16250000      -4.65900000       2.30730000
O        0.22570000      -5.84840000       2.21490000
H        0.85940000       1.75530000      -0.50300000
H       -0.12670000       0.75430000      -1.60740000
H       -0.91660000       1.92430000      -0.51680000
H       -2.19170000       0.04020000       0.59640000
H       -2.33140000      -1.96120000      -0.97870000
H       -0.51290000      -1.90990000      -1.15870000
H       -2.05450000      -2.26490000       1.51660000
H        0.95940000      -1.94150000       0.95460000
H        0.23960000      -2.21170000       2.54880000
H        0.02610000      -4.11450000       3.26360000
