14
Properties=species:S:1:pos:R:3 gdb_43905=T pbc="F F F"
O       -0.00320000       0.10660000      -0.48440000
C        0.00810000       1.23380000      -0.09500000
C       -1.08270000       2.20490000       0.40710000
C        0.04020000       3.24840000       0.66030000
O        0.61440000       3.12930000       1.97420000
C        1.71640000       2.32220000       1.48610000
C        1.12580000       2.28290000       0.05920000
C       -0.16970000       4.61800000       0.23180000
N       -0.33960000       5.70210000      -0.13120000
H       -1.76890000       2.48650000      -0.39840000
H       -1.65250000       1.91070000       1.29060000
H        2.66300000       2.86820000       1.55230000
H        1.80130000       1.36770000       2.01380000
H        1.77050000       2.49610000      -0.79090000
