19
Properties=species:S:1:pos:R:3 gdb_41618=T pbc="F F F"
C        0.06620000       1.60010000       0.06960000
C        1.62710000       1.37480000       0.04130000
C        1.29710000      -0.02940000       0.49280000
C        1.49140000      -0.89670000       1.48380000
C        0.19950000      -1.62620000       1.80290000
C       -0.52670000      -1.03940000       3.03620000
O       -1.30470000      -0.14960000       2.20640000
C       -0.88880000      -0.82620000       0.99980000
C       -0.12480000       0.04360000      -0.00030000
H       -0.26690000       1.98410000       1.03480000
H       -0.36200000       2.19140000      -0.74250000
H        2.01180000       1.42640000      -0.98280000
H        2.25570000       1.98820000       0.69050000
H        2.36970000      -0.97680000       2.11550000
H        0.22940000      -2.71680000       1.73360000
H       -1.16730000      -1.75830000       3.56620000
H        0.08590000      -0.49390000       3.76310000
H       -1.71490000      -1.40300000       0.56770000
H       -0.27050000      -0.29030000      -1.03430000
