21
Properties=species:S:1:pos:R:3 gdb_77977=T pbc="F F F"
C       -0.14370000       1.59550000       0.09780000
C        0.05470000       0.09340000       0.08540000
C        1.35610000      -0.63540000      -0.20300000
C        2.70230000       0.08830000      -0.07510000
O        2.93260000       1.15000000      -0.99570000
C        2.73080000       0.50950000       1.38700000
C        1.67120000       0.05560000       2.05640000
C        0.73090000      -0.72090000       1.18080000
C        0.07170000      -1.96150000       1.73740000
H        0.64530000       2.11640000       0.64660000
H       -0.18130000       1.99530000      -0.92240000
H       -1.09380000       1.85270000       0.57940000
H       -0.79890000      -0.42870000      -0.34480000
H        1.30520000      -1.47720000      -0.88480000
H        3.51780000      -0.61580000      -0.28470000
H        2.23500000       1.80060000      -0.86910000
H        3.52620000       1.13120000       1.78270000
H        1.46760000       0.22640000       3.10920000
H       -0.59350000      -1.71620000       2.57430000
H       -0.53030000      -2.46440000       0.97430000
H        0.81550000      -2.67770000       2.10490000
