14
Properties=species:S:1:pos:R:3 gdb_4859=T pbc="F F F"
C        0.11260000       1.13600000      -0.42330000
O       -0.44500000       0.27940000       0.57740000
C        0.45510000      -0.45940000       1.26150000
C        1.02800000      -1.67630000       1.04800000
N        1.86950000      -2.00670000       2.10640000
C        1.78620000      -0.99890000       2.92730000
O        2.41500000      -0.86410000       4.10900000
N        0.96140000      -0.01360000       2.48790000
H        0.67390000       0.55640000      -1.16450000
H       -0.72820000       1.63740000      -0.90660000
H        0.77820000       1.88680000       0.02130000
H        0.88850000      -2.33700000       0.20760000
H        2.93060000      -1.67200000       4.22840000
H        0.69320000       0.82090000       2.98120000
