19
Properties=species:S:1:pos:R:3 gdb_126428=T pbc="F F F"
C        0.02470000       1.53710000       0.08340000
C       -0.07220000       0.01200000      -0.09430000
C        0.71920000      -0.50050000      -1.26010000
N        0.10710000      -0.81380000      -2.39730000
N        1.11140000      -1.20830000      -3.22520000
C        2.31890000      -1.15370000      -2.62520000
O        3.41370000      -1.53460000      -3.32250000
C        2.12930000      -0.69590000      -1.33600000
C        3.17470000      -0.47830000      -0.28580000
H        1.05890000       1.85610000       0.24900000
H       -0.34410000       2.05200000      -0.80870000
H       -0.56970000       1.86920000       0.94060000
H        0.26580000      -0.48210000       0.82570000
H       -1.11750000      -0.27500000      -0.24420000
H        0.90910000      -1.52000000      -4.15910000
H        4.19030000      -1.39380000      -2.77120000
H        3.46030000       0.57550000      -0.17680000
H        2.83190000      -0.82140000       0.69620000
H        4.09280000      -1.03810000      -0.50590000
