16
Properties=species:S:1:pos:R:3 gdb_98929=T pbc="F F F"
C       -0.58840000       1.41760000      -0.41320000
N       -1.06110000       0.05000000      -0.36010000
C       -0.95040000      -0.68900000       0.76380000
O       -0.46860000      -0.33340000       1.82380000
N       -1.45730000      -2.01410000       0.66890000
C       -2.04750000      -2.68230000      -0.38070000
N       -2.23710000      -2.13950000      -1.53050000
C       -2.42670000      -4.03500000      -0.06380000
C       -2.75080000      -5.16680000       0.18070000
H        0.19020000       1.53700000      -1.17510000
H       -1.40670000       2.10950000      -0.64270000
H       -0.17230000       1.67120000       0.56210000
H       -1.49070000      -0.39680000      -1.16620000
H       -1.34660000      -2.51440000       1.53680000
H       -2.68380000      -2.79140000      -2.16800000
H       -3.03980000      -6.16800000       0.39060000
