14
Properties=species:S:1:pos:R:3 gdb_14826=T pbc="F F F"
O       -0.48090000       0.54430000       0.62110000
C        0.14240000       1.00720000      -0.29980000
C        1.26010000       2.00400000      -0.17130000
C        0.96280000       3.43900000      -0.69540000
O        1.23860000       4.00470000       0.59540000
C        1.49070000       2.72410000       1.18620000
C        0.57280000       2.39710000       2.35740000
O       -0.29090000       3.13270000       2.74980000
H       -0.08680000       0.71770000      -1.35030000
H        2.16350000       1.57170000      -0.61220000
H        1.64570000       3.80800000      -1.46810000
H       -0.07290000       3.61720000      -1.00940000
H        2.52630000       2.63620000       1.55060000
H        0.81900000       1.43830000       2.86140000
