17
Properties=species:S:1:pos:R:3 gdb_85344=T pbc="F F F"
C       -0.07870000       1.54720000       0.07000000
C        0.04040000       0.01790000       0.01600000
C        0.81020000      -0.51610000      -1.20930000
C        1.96150000      -1.36850000      -0.65400000
O        2.77900000      -1.97440000      -1.30760000
C        1.87370000      -1.30430000       0.81830000
C        0.82260000      -0.55180000       1.20130000
C        0.42690000      -0.28630000       2.53130000
C        0.05280000      -0.03970000       3.65040000
H        0.91060000       2.01570000       0.03290000
H       -0.66120000       1.91470000      -0.78000000
H       -0.57320000       1.87150000       0.99000000
H       -0.97250000      -0.40250000       0.04940000
H        0.19270000      -1.12710000      -1.87370000
H        1.22830000       0.29120000      -1.81960000
H        2.57080000      -1.81090000       1.47240000
H       -0.26240000       0.16750000       4.64360000
