20
Properties=species:S:1:pos:R:3 gdb_110274=T pbc="F F F"
C       -0.02860000       1.65180000      -0.02010000
C        0.16410000       0.14070000       0.15570000
C        0.64730000      -0.52670000      -1.13050000
C        0.82980000      -2.03940000      -1.28970000
C       -0.40890000      -2.81710000      -1.49170000
C       -1.77650000      -2.57900000      -0.89390000
N        0.11200000      -2.03030000      -2.65620000
C       -0.23090000      -0.64130000      -2.39000000
O       -0.91510000       0.09880000      -3.02830000
H        0.91530000       2.14130000      -0.28420000
H       -0.74520000       1.86250000      -0.81900000
H       -0.39590000       2.11010000       0.90270000
H        0.89980000      -0.05560000       0.94590000
H       -0.77150000      -0.31510000       0.49360000
H        1.57560000      -0.03680000      -1.45660000
H        1.79130000      -2.53460000      -1.20760000
H       -0.21510000      -3.87320000      -1.67350000
H       -2.02140000      -1.52210000      -0.78160000
H       -2.54060000      -3.02670000      -1.53730000
H       -1.84250000      -3.05590000       0.08960000
