20
Properties=species:S:1:pos:R:3 gdb_73053=T pbc="F F F"
C       -0.16700000       1.58910000       0.25910000
C       -0.00200000       0.11360000       0.02920000
C       -1.16670000      -0.87760000      -0.13620000
C       -0.37650000      -1.94710000       0.67860000
C        0.79350000      -0.96810000       0.81960000
C        1.23940000      -0.48510000      -0.53000000
O        1.17430000      -1.28510000      -1.69250000
C        2.07820000      -2.28470000      -1.77320000
N        2.14090000      -2.99450000      -2.81500000
H        0.78670000       2.06650000       0.50650000
H       -0.56270000       2.08260000      -0.63690000
H       -0.86380000       1.78620000       1.08140000
H       -2.06740000      -0.54290000       0.38310000
H       -1.42160000      -1.13480000      -1.16680000
H       -0.84890000      -2.16890000       1.63730000
H       -0.15790000      -2.89060000       0.17020000
H        1.43020000      -0.86240000       1.69160000
H        2.10640000       0.17340000      -0.52190000
H        2.69660000      -2.38430000      -0.87120000
H        2.86420000      -3.70260000      -2.70620000
