20
Properties=species:S:1:pos:R:3 gdb_98597=T pbc="F F F"
C        0.44790000       1.36830000      -0.19650000
O        0.19900000      -0.03980000      -0.27290000
C       -0.71810000      -0.51220000       0.60000000
O       -1.30750000       0.19950000       1.38290000
C       -0.86440000      -1.98420000       0.42000000
C       -1.08380000      -2.89060000       1.61510000
C       -1.14700000      -2.39470000       3.04310000
N       -2.13240000      -2.69350000       0.63890000
C       -3.36140000      -1.97920000       0.97500000
H        1.20900000       1.57590000      -0.94870000
H       -0.46350000       1.93340000      -0.40810000
H        0.80690000       1.64480000       0.79820000
H       -0.28280000      -2.36140000      -0.41590000
H       -0.60900000      -3.86810000       1.51920000
H       -1.45630000      -1.35240000       3.11030000
H       -1.84330000      -3.01110000       3.62250000
H       -0.16040000      -2.49090000       3.50810000
H       -3.23100000      -1.09290000       1.60190000
H       -3.84260000      -1.67210000       0.04120000
H       -4.02920000      -2.68550000       1.47820000
