18
Properties=species:S:1:pos:R:3 gdb_71707=T pbc="F F F"
C       -0.06600000       1.55920000      -0.04560000
C        0.02460000       0.06450000      -0.03520000
C        0.61610000      -0.91210000      -1.09180000
C       -0.40970000      -1.90510000      -0.69970000
N        0.91640000      -1.89540000      -0.00340000
C        0.61090000      -0.86240000       1.08050000
C       -0.79020000      -1.17320000       1.62890000
C       -1.21620000      -0.90210000       0.16070000
O       -2.48100000      -0.49470000      -0.23370000
H        0.92520000       2.01730000      -0.13660000
H       -0.67970000       1.90740000      -0.88350000
H       -0.52470000       1.93180000       0.87700000
H        1.22980000      -0.80230000      -1.97840000
H       -0.73410000      -2.82300000      -1.17710000
H        1.46970000      -0.63720000       1.71050000
H       -0.97350000      -2.15730000       2.06960000
H       -1.14490000      -0.38030000       2.29410000
H       -3.06970000      -1.25790000      -0.22870000
