14
Properties=species:S:1:pos:R:3 gdb_125841=T pbc="F F F"
C       -0.02650000       1.50690000       0.00240000
C       -0.01000000       0.01830000       0.04520000
N       -0.02000000      -0.74560000      -1.01140000
O        0.00140000      -2.03830000      -0.56170000
N        0.02540000      -2.09060000       0.81110000
C        0.01870000      -0.84360000       1.18610000
O        0.03540000      -0.38850000       2.45180000
C        0.06660000      -1.29900000       3.48480000
N        0.07950000      -0.84580000       4.65460000
H        0.85890000       1.91780000       0.49730000
H       -0.04770000       1.85100000      -1.03250000
H       -0.90310000       1.89910000       0.52720000
H        0.07670000      -2.33570000       3.14510000
H        0.10270000      -1.61090000       5.32630000
