21
Properties=species:S:1:pos:R:3 gdb_58655=T pbc="F F F"
C        0.49960000       1.09360000      -0.52290000
C        1.37140000      -0.16420000      -0.39700000
C        2.78210000       0.05470000      -0.96050000
C        1.42140000      -0.63520000       1.05540000
O        0.22070000      -1.27170000       1.54570000
C        1.40060000      -2.06990000       1.44520000
C        1.38940000      -3.23850000       0.49350000
C        2.03030000       0.29060000       1.98950000
C        2.54880000       1.06340000       2.75120000
H        0.93580000       1.93090000       0.03100000
H        0.40710000       1.39170000      -1.57190000
H       -0.50390000       0.91060000      -0.12820000
H        0.88630000      -0.96280000      -0.96610000
H        3.31080000       0.83240000      -0.40060000
H        3.38100000      -0.86060000      -0.91180000
H        2.72950000       0.36870000      -2.00750000
H        1.85010000      -2.29270000       2.41510000
H        0.94970000      -2.98680000      -0.47270000
H        2.40850000      -3.60630000       0.33340000
H        0.80440000      -4.05700000       0.92630000
H        2.99940000       1.74360000       3.43120000
