21
Properties=species:S:1:pos:R:3 gdb_100067=T pbc="F F F"
C        0.11900000       1.53640000      -0.02490000
C        0.06590000       0.08170000       0.01100000
C        0.02020000      -1.12100000       0.03170000
C       -0.01920000      -2.57820000       0.06210000
C       -1.44140000      -3.18140000       0.03810000
C       -2.32220000      -2.62360000       1.16430000
O       -1.99620000      -2.86480000      -1.23280000
C       -1.32830000      -4.71120000       0.14360000
O       -2.63150000      -5.23780000      -0.09260000
H        1.07950000       1.89000000      -0.41630000
H       -0.66910000       1.94700000      -0.66600000
H       -0.00880000       1.96810000       0.97420000
H        0.52380000      -2.97690000      -0.80370000
H        0.49960000      -2.94240000       0.95900000
H       -2.44970000      -1.54800000       1.03000000
H       -3.30310000      -3.10570000       1.14650000
H       -1.87200000      -2.80190000       2.14710000
H       -2.74350000      -3.46660000      -1.34390000
H       -0.61960000      -5.07040000      -0.61570000
H       -0.95700000      -5.00530000       1.13670000
H       -2.55420000      -6.17340000      -0.29630000
