17
Properties=species:S:1:pos:R:3 gdb_1468=T pbc="F F F"
C       -0.06030000       1.57880000       0.05710000
C       -0.03810000       0.04850000       0.00690000
C       -1.45200000      -0.53400000       0.01590000
O       -2.09080000      -0.13370000       1.21790000
C        0.72910000      -0.48280000      -1.22720000
C        2.13830000      -0.11020000      -1.24170000
C        3.30030000       0.19790000      -1.23520000
H        0.95470000       1.98260000       0.09510000
H       -0.55350000       1.98950000      -0.83310000
H       -0.61100000       1.92140000       0.93540000
H        0.46970000      -0.32520000       0.90480000
H       -2.00390000      -0.17240000      -0.86880000
H       -1.40020000      -1.63290000      -0.05640000
H       -2.99850000      -0.44970000       1.19790000
H        0.64920000      -1.57740000      -1.26380000
H        0.24610000      -0.11100000      -2.14170000
H        4.32740000       0.46660000      -1.23860000
