18
Properties=species:S:1:pos:R:3 gdb_126603=T pbc="F F F"
C        0.02100000       1.56370000       0.01040000
C       -0.00520000       0.03310000       0.00160000
C       -1.42990000      -0.53150000       0.01280000
C       -1.43370000      -2.06270000       0.00520000
N       -2.78780000      -2.60940000       0.01490000
N       -3.47880000      -2.85980000       1.11550000
N       -4.63760000      -3.27630000       0.70160000
N       -4.64790000      -3.27470000      -0.64470000
N       -3.49580000      -2.85700000      -1.07540000
H        1.04810000       1.93990000       0.00230000
H       -0.49190000       1.97370000      -0.86610000
H       -0.47420000       1.96310000       0.90190000
H        0.52640000      -0.33880000      -0.88400000
H        0.54440000      -0.34920000       0.87160000
H       -1.96830000      -0.18080000       0.90100000
H       -1.98570000      -0.17180000      -0.86100000
H       -0.94870000      -2.45850000      -0.88960000
H       -0.93210000      -2.46730000       0.88690000
