19
Properties=species:S:1:pos:R:3 gdb_52432=T pbc="F F F"
O       -0.13940000      -0.08390000      -0.12790000
C       -0.01760000       1.11220000      -0.08550000
C        1.30230000       1.85100000      -0.11890000
C        1.35270000       2.87430000      -1.26540000
C        2.63710000       3.70240000      -1.25310000
N        2.62870000       4.68130000      -2.33640000
C        3.84160000       5.48940000      -2.37210000
C        3.81600000       6.43050000      -3.49520000
N        3.80750000       7.15660000      -4.39310000
H       -0.91090000       1.77770000      -0.02120000
H        1.40680000       2.38000000       0.84000000
H        2.10990000       1.11690000      -0.19200000
H        1.26900000       2.34670000      -2.22460000
H        0.49530000       3.55480000      -1.20630000
H        2.70900000       4.25190000      -0.30480000
H        3.51480000       3.02960000      -1.29050000
H        2.51420000       4.20910000      -3.22810000
H        3.90880000       6.06600000      -1.44080000
H        4.77610000       4.90220000      -2.44190000
