16
Properties=species:S:1:pos:R:3 gdb_133044=T pbc="F F F"
C        0.01870000       1.43320000      -0.11790000
N       -0.08850000       0.01160000       0.11170000
C        0.59280000      -0.64750000       1.10730000
N        0.61550000      -1.98580000       1.00000000
C        1.22740000      -2.69040000       1.94930000
C        1.84620000      -2.09970000       3.04020000
F        2.44900000      -2.86110000       3.96420000
C        1.84070000      -0.71790000       3.16100000
C        1.20680000       0.02870000       2.17970000
H        1.05600000       1.77140000      -0.26560000
H       -0.55450000       1.68920000      -1.01120000
H       -0.40560000       2.00230000       0.71810000
H       -0.30900000      -0.57910000      -0.67400000
H        1.23430000      -3.77260000       1.84440000
H        2.32690000      -0.24510000       4.00700000
H        1.18480000       1.10900000       2.24420000
