21
Properties=species:S:1:pos:R:3 gdb_93034=T pbc="F F F"
C       -0.23330000       1.45750000       0.09370000
C        0.08370000      -0.02880000      -0.02440000
C        0.82800000      -0.38140000      -1.33960000
C        2.30400000      -0.06040000      -1.31260000
C        3.15560000      -0.72500000      -0.53010000
C        2.70470000      -1.81430000       0.37900000
C        2.75180000      -1.64280000       1.88890000
C        1.43430000      -1.60600000       1.17710000
O        0.83490000      -0.35000000       1.14510000
H        0.68430000       2.04940000       0.02260000
H       -0.91780000       1.77170000      -0.69990000
H       -0.69970000       1.66660000       1.06000000
H       -0.85860000      -0.60120000      -0.01410000
H        0.69820000      -1.45100000      -1.53830000
H        0.32750000       0.14430000      -2.15880000
H        2.67010000       0.73500000      -1.95620000
H        4.21780000      -0.48930000      -0.54870000
H        2.89450000      -2.82800000       0.02710000
H        2.99440000      -2.50480000       2.50000000
H        3.10320000      -0.69080000       2.27060000
H        0.74610000      -2.44470000       1.29210000
