15
Properties=species:S:1:pos:R:3 gdb_64639=T pbc="F F F"
N       -0.07380000       1.48930000      -0.00360000
C        0.03010000       0.02960000       0.01640000
C        0.60740000      -0.52250000       1.31090000
C       -0.31630000      -1.28440000       1.89810000
N       -1.49790000      -1.34830000       1.14670000
C       -1.41450000      -0.54120000       0.02700000
N       -2.26590000      -0.22280000      -0.85510000
C        0.77740000      -0.51190000      -1.14300000
N        1.40480000      -0.88790000      -2.03900000
H        0.83420000       1.90190000      -0.19710000
H       -0.70020000       1.74480000      -0.76490000
H        1.61290000      -0.33570000       1.65100000
H       -0.25310000      -1.83700000       2.82470000
H       -2.36190000      -1.73850000       1.48220000
H       -3.18210000      -0.64120000      -0.69230000
