15
Properties=species:S:1:pos:R:3 gdb_124257=T pbc="F F F"
C       -0.13180000       1.48770000       0.01200000
C        0.03240000      -0.01530000       0.00060000
O        1.11060000      -0.57090000      -0.00530000
C       -1.20660000      -0.83030000      -0.00400000
C       -1.38630000      -2.17900000      -0.03120000
C       -2.80310000      -2.32610000      -0.02470000
N       -3.52430000      -3.49940000      -0.11600000
N       -3.41350000      -1.15410000       0.01340000
O       -2.39660000      -0.20220000       0.01570000
H        0.85240000       1.95600000       0.01580000
H       -0.70270000       1.81410000      -0.86350000
H       -0.70360000       1.80110000       0.89170000
H       -0.62310000      -2.93780000      -0.06240000
H       -3.10700000      -4.29010000       0.35190000
H       -4.50220000      -3.38920000       0.11480000
