19
Properties=species:S:1:pos:R:3 gdb_109715=T pbc="F F F"
C       -0.34520000       1.06170000      -0.11710000
O        0.57310000      -0.00150000       0.07300000
C        0.99040000      -0.60750000      -1.11160000
C        1.54850000      -1.98900000      -0.91580000
O        1.54290000      -2.52710000       0.37030000
C        0.23020000      -1.80580000      -1.62540000
C       -1.10320000      -2.36360000      -1.14980000
O       -1.45890000      -2.71130000      -2.50990000
C       -0.21590000      -2.19090000      -3.02980000
H        0.11050000       1.87700000      -0.69680000
H       -1.25260000       0.72770000      -0.63600000
H       -0.61170000       1.43560000       0.87380000
H        1.46150000       0.06560000      -1.83080000
H        2.42010000      -2.28600000      -1.49490000
H        1.27780000      -1.81460000       0.96680000
H       -1.02590000      -3.24280000      -0.49910000
H       -1.81190000      -1.65070000      -0.71030000
H       -0.37870000      -1.35860000      -3.72870000
H        0.38090000      -2.96670000      -3.52830000
