17
Properties=species:S:1:pos:R:3 gdb_133109=T pbc="F F F"
C        0.01890000       1.43880000       0.12870000
N       -0.13650000       0.01930000      -0.10320000
C        0.54970000      -0.62690000      -1.11470000
C        1.16480000       0.02440000      -2.19190000
C        1.79890000      -0.70470000      -3.19790000
C        1.84690000      -2.09270000      -3.15440000
C        1.25040000      -2.76190000      -2.08220000
C        0.62270000      -2.03010000      -1.09840000
F        0.05060000      -2.65970000      -0.04980000
H        1.06770000       1.74650000       0.26360000
H       -0.39620000       2.01690000      -0.70480000
H       -0.53940000       1.71110000       1.02690000
H       -0.28420000      -0.54900000       0.71480000
H        1.14380000       1.10610000      -2.24450000
H        2.26270000      -0.17190000      -4.02130000
H        2.34240000      -2.65650000      -3.93590000
H        1.26670000      -3.84250000      -1.99820000
