23
Properties=species:S:1:pos:R:3 gdb_81373=T pbc="F F F"
C       -0.27800000       1.38430000      -0.13360000
C        0.01560000      -0.11260000      -0.11100000
C        1.32650000      -0.54610000      -0.84650000
C        2.07390000      -0.33740000       0.49830000
C        0.71580000      -0.63340000       1.18670000
C        0.56240000      -2.15730000       1.32980000
O       -0.57320000      -2.52640000       2.10380000
C        0.53270000      -2.83360000      -0.06490000
C        1.29520000      -2.04970000      -1.16330000
H        0.59360000       1.98180000       0.15170000
H       -0.58450000       1.70610000      -1.13520000
H       -1.08940000       1.63500000       0.55870000
H       -0.89160000      -0.65000000      -0.41400000
H        1.64580000       0.04530000      -1.70960000
H        2.90720000      -1.01360000       0.71810000
H        2.40850000       0.69060000       0.64870000
H        0.48650000      -0.14080000       2.13570000
H        1.41250000      -2.52810000       1.91480000
H       -1.35750000      -2.21980000       1.63520000
H        0.88400000      -3.86690000       0.00530000
H       -0.52290000      -2.90190000      -0.35360000
H        0.81380000      -2.23070000      -2.13130000
H        2.32610000      -2.41190000      -1.25810000
