14
Properties=species:S:1:pos:R:3 gdb_18781=T pbc="F F F"
N       -0.06370000       1.24380000      -0.18490000
C       -0.02550000       0.00030000      -0.01750000
C       -1.08820000      -1.08170000       0.08500000
O       -1.13320000      -1.79180000      -1.18990000
C        0.06280000      -2.54350000      -0.87880000
C        1.33510000      -1.70090000      -1.10510000
N        1.07830000      -0.93790000       0.18610000
C        0.05420000      -2.00900000       0.56990000
H        0.88360000       1.63160000      -0.21580000
H       -2.07800000      -0.90650000       0.50580000
H        0.00120000      -3.57580000      -1.22700000
H        2.25530000      -2.28460000      -1.00350000
H        1.37850000      -1.08190000      -2.00450000
H        0.15130000      -2.53670000       1.51420000
