17
Properties=species:S:1:pos:R:3 gdb_27301=T pbc="F F F"
C       -0.00890000       1.51510000       0.01460000
C       -0.01130000       0.01660000      -0.02100000
C       -0.05510000      -0.68920000      -1.17090000
N       -0.03890000      -2.06930000      -1.18660000
C        0.00470000      -2.79170000      -0.02270000
N       -0.06630000      -4.17650000      -0.19500000
C        0.05780000      -2.14610000       1.17490000
C        0.03770000      -0.69650000       1.27450000
O        0.07800000      -0.08670000       2.34270000
H        0.89000000       1.88520000       0.51880000
H       -0.05660000       1.94830000      -0.98870000
H       -0.85550000       1.88400000       0.60290000
H       -0.09850000      -0.22490000      -2.14960000
H       -0.24680000      -2.55460000      -2.04380000
H        0.58710000      -4.53790000      -0.88020000
H        0.03880000      -4.67520000       0.67790000
H        0.13170000      -2.71410000       2.09500000
