20
Properties=species:S:1:pos:R:3 gdb_113046=T pbc="F F F"
C        0.19420000       1.19510000      -0.20100000
O       -0.02650000      -0.06470000       0.39440000
C       -1.31840000      -0.55960000       0.18610000
C       -1.67270000      -1.17930000      -1.20030000
C       -2.37640000      -2.33330000      -0.43430000
C       -2.21490000      -3.75360000      -0.98720000
C       -2.81170000      -4.76510000      -0.11530000
N       -3.29150000      -5.54630000       0.58820000
C       -1.58030000      -1.93090000       0.83770000
H        1.21550000       1.49580000       0.04360000
H        0.08930000       1.15800000      -1.29580000
H       -0.50330000       1.95420000       0.18640000
H       -2.07090000       0.18710000       0.48500000
H       -2.26720000      -0.59550000      -1.90630000
H       -0.75890000      -1.52690000      -1.69370000
H       -3.44110000      -2.11860000      -0.30550000
H       -2.67850000      -3.83190000      -1.97810000
H       -1.15150000      -3.98820000      -1.11580000
H       -0.63910000      -2.48420000       0.91190000
H       -2.09050000      -1.95970000       1.80150000
