13
Properties=species:S:1:pos:R:3 gdb_127772=T pbc="F F F"
C       -0.01420000       1.46470000      -0.05610000
N       -0.00720000       0.02470000       0.06890000
N       -0.04530000      -0.77660000      -1.07870000
N       -0.03050000      -2.02280000      -0.74490000
C        0.01670000      -2.08130000       0.61670000
C        0.03160000      -0.79600000       1.13080000
N        0.07810000      -0.95400000       2.46490000
N        0.09100000      -2.32280000       2.74660000
N        0.05390000      -2.98380000       1.63990000
H        0.89500000       1.89900000       0.37060000
H       -0.05460000       1.68930000      -1.12230000
H       -0.89020000       1.89600000       0.43770000
H        0.10320000      -0.30150000       3.22920000
