15
Properties=species:S:1:pos:R:3 gdb_132974=T pbc="F F F"
C       -0.02630000       1.49620000       0.04520000
N       -0.00550000       0.03680000       0.00480000
C       -0.03660000      -0.66440000      -1.18260000
C       -0.01750000      -2.01290000      -1.23000000
C        0.03810000      -2.83450000      -0.01460000
O        0.05670000      -4.05990000      -0.02610000
C        0.06930000      -2.03730000       1.21350000
C        0.04670000      -0.69100000       1.16180000
F        0.07350000       0.07080000       2.25210000
H        0.87390000       1.88790000       0.52620000
H       -0.06930000       1.86480000      -0.97940000
H       -0.90050000       1.86070000       0.59090000
H       -0.07750000      -0.04370000      -2.06930000
H       -0.04340000      -2.52090000      -2.18580000
H        0.11090000      -2.53470000       2.17320000
