16
Properties=species:S:1:pos:R:3 gdb_44631=T pbc="F F F"
N        0.27530000       1.02220000       0.41240000
C        0.07510000      -0.14180000      -0.00620000
O        0.92100000      -1.01530000      -0.67420000
C       -0.12050000      -2.02350000      -0.76510000
C       -0.14850000      -3.03940000       0.43140000
O        0.86300000      -2.84190000       1.42220000
C       -0.02840000      -2.03730000       2.24400000
C       -1.14560000      -2.12390000       1.18830000
C       -1.10000000      -1.09780000       0.00180000
H        1.22840000       1.33160000       0.21270000
H       -0.24970000      -2.39100000      -1.78310000
H       -0.31380000      -4.09040000       0.17800000
H       -0.25980000      -2.55020000       3.18470000
H        0.38020000      -1.04450000       2.45530000
H       -2.13840000      -2.43470000       1.50630000
H       -2.04890000      -0.73480000      -0.38630000
