15
Properties=species:S:1:pos:R:3 gdb_45964=T pbc="F F F"
N        0.01470000       1.16490000       0.53750000
C        0.04430000       0.00300000       0.04310000
O        1.20430000      -0.59790000      -0.36030000
C        1.11390000      -1.70230000      -1.28200000
C        0.15180000      -2.74340000      -0.72880000
O        0.43730000      -3.89320000      -0.51170000
N       -1.11330000      -2.19550000      -0.49000000
C       -1.56190000      -1.89280000       0.85840000
C       -1.21320000      -0.79410000      -0.11100000
H        0.95130000       1.57340000       0.54960000
H        0.78990000      -1.34670000      -2.26830000
H        2.11540000      -2.12330000      -1.35390000
H       -2.60700000      -2.09510000       1.07000000
H       -0.87120000      -2.09700000       1.67140000
H       -2.03350000      -0.24350000      -0.56130000
