17
Properties=species:S:1:pos:R:3 gdb_2578=T pbc="F F F"
C       -0.56800000       0.73590000      -0.52440000
C       -0.35680000      -0.63100000       0.14110000
C        0.73730000      -0.65120000       1.19380000
C        0.54150000       0.17080000       2.45870000
O        0.71270000       1.55750000       2.21980000
C        1.69030000      -1.77140000       1.23660000
O        2.08060000      -0.51390000       0.67790000
H        0.35220000       1.06290000      -1.01850000
H       -1.35370000       0.67210000      -1.28330000
H       -0.84480000       1.50060000       0.20360000
H       -1.28980000      -0.96880000       0.61070000
H       -0.10790000      -1.37240000      -0.62630000
H       -0.47560000       0.04450000       2.84460000
H        1.24000000      -0.18250000       3.23210000
H        1.57050000       1.64910000       1.78780000
H        2.17880000      -2.03880000       2.17280000
H        1.59060000      -2.58570000       0.52030000
