19
Properties=species:S:1:pos:R:3 gdb_19906=T pbc="F F F"
C       -0.91630000       1.34070000       0.53520000
C       -0.13090000       0.16380000      -0.05840000
C        0.67370000      -0.56680000       1.02020000
C        0.60040000      -1.99870000       1.48010000
C        0.76840000      -3.04220000       0.35730000
C        1.03460000      -2.52810000      -1.00660000
N        2.12950000      -2.52390000      -0.01890000
C        1.92370000      -1.42660000       1.00600000
H       -0.24280000       2.07980000       0.98260000
H       -1.50790000       1.84870000      -0.23250000
H       -1.60320000       0.99980000       1.31740000
H       -0.83630000      -0.52050000      -0.53900000
H        0.53540000       0.53860000      -0.84520000
H        0.77100000       0.06410000       1.90640000
H        0.29960000      -2.28950000       2.47870000
H        0.62580000      -4.10140000       0.54760000
H        1.19540000      -3.28270000      -1.77310000
H        0.62520000      -1.60220000      -1.37890000
H        2.80640000      -1.14420000       1.56700000
