16
Properties=species:S:1:pos:R:3 gdb_73002=T pbc="F F F"
O       -0.21190000       1.41560000       0.08690000
C       -0.14610000       0.05390000       0.04440000
C        0.61640000      -0.68780000      -1.04620000
N       -0.31400000      -1.86810000      -0.89350000
C       -1.16690000      -1.06860000       0.00840000
C       -0.28950000      -0.88130000       1.26240000
O        0.62790000      -1.86070000       1.61490000
C       -0.97620000      -0.27080000       2.41410000
O       -1.62920000       0.75660000       2.35520000
H       -0.79320000       1.63760000       0.83600000
H        0.50300000      -0.18680000      -2.01050000
H        1.66810000      -0.92140000      -0.86030000
H       -0.78650000      -2.09150000      -1.76210000
H       -2.24790000      -1.13880000       0.03630000
H        0.59260000      -2.51260000       0.89400000
H       -0.83910000      -0.81970000       3.36640000
