21
Properties=species:S:1:pos:R:3 gdb_42034=T pbc="F F F"
C        0.00740000       1.56210000       0.09480000
O        1.37240000       1.91930000      -0.15740000
C        2.22520000       0.77870000       0.01990000
C        1.34960000      -0.27690000       0.68900000
C        1.64310000      -1.76410000       0.55310000
O        0.60850000      -2.50490000       1.19060000
C       -0.68590000      -2.26050000       0.66110000
C       -1.10350000      -0.77940000       0.73910000
C       -0.01390000       0.03750000       0.05600000
H       -0.30860000       1.94120000       1.07980000
H       -0.61990000       2.03300000      -0.66960000
H        2.59520000       0.43640000      -0.95940000
H        3.08890000       1.07760000       0.62360000
H        1.28640000      -0.05370000       1.76290000
H        1.72180000      -2.04390000      -0.51220000
H        2.57130000      -2.05970000       1.05100000
H       -0.72980000      -2.59140000      -0.39130000
H       -1.36590000      -2.89260000       1.23890000
H       -2.08180000      -0.65270000       0.26070000
H       -1.20530000      -0.47910000       1.78910000
H        0.03360000      -0.26850000      -1.00080000
