18
Properties=species:S:1:pos:R:3 gdb_65254=T pbc="F F F"
C       -0.01510000       1.55370000      -0.23660000
C       -0.03420000       0.05800000      -0.01900000
C        1.14460000      -0.74590000      -0.36920000
O        0.85630000      -0.42630000       0.99630000
C       -1.42130000      -0.58580000      -0.04020000
C       -1.47450000      -2.05080000       0.46980000
O       -2.46390000      -2.02160000       1.52870000
C       -2.83510000      -0.72860000       1.63520000
N       -2.35490000       0.14080000       0.84940000
H        1.00970000       1.93010000      -0.19520000
H       -0.44290000       1.80550000      -1.21310000
H       -0.61420000       2.05240000       0.52810000
H        1.04110000      -1.79790000      -0.63570000
H        2.02120000      -0.25420000      -0.78850000
H       -1.79850000      -0.50250000      -1.06770000
H       -1.80680000      -2.76820000      -0.28290000
H       -0.52890000      -2.37290000       0.91020000
H       -3.55670000      -0.53360000       2.42110000
