17
Properties=species:S:1:pos:R:3 gdb_127218=T pbc="F F F"
C       -0.01920000       1.40680000       0.09990000
N        0.00370000      -0.03510000      -0.01130000
C        0.13540000      -0.78150000      -1.12690000
C        0.10010000      -2.11170000      -0.73190000
C        0.20000000      -3.26350000      -1.54110000
C        0.28290000      -4.26260000      -2.21000000
C       -0.06080000      -2.05150000       0.68500000
C       -0.16080000      -3.19510000       1.63990000
N       -0.11720000      -0.79220000       1.10350000
H        0.09080000       1.84020000      -0.89540000
H       -0.96560000       1.73720000       0.53620000
H        0.80050000       1.74980000       0.73690000
H        0.24300000      -0.33850000      -2.10410000
H        0.35630000      -5.13970000      -2.80320000
H        0.73430000      -3.82480000       1.59770000
H       -0.27890000      -2.82090000       2.65860000
H       -1.01480000      -3.83730000       1.39950000
