19
Properties=species:S:1:pos:R:3 gdb_54416=T pbc="F F F"
C       -0.49500000       1.21280000       0.20620000
C        0.21200000      -0.09890000      -0.06580000
O        0.76880000      -0.72350000       0.83250000
C        0.15170000      -0.66460000      -1.41330000
C        1.23120000      -1.65430000      -1.86720000
C       -0.09260000      -2.21970000      -1.54680000
O       -0.33130000      -3.08580000      -0.51520000
C       -1.12230000      -1.96530000      -2.64290000
C       -0.83260000      -0.42530000      -2.56500000
H       -0.16330000       1.98750000      -0.49340000
H       -1.57580000       1.09620000       0.06420000
H       -0.30240000       1.52580000       1.23290000
H        1.58340000      -1.57090000      -2.89360000
H        1.99950000      -1.82980000      -1.12250000
H        0.16510000      -2.74940000       0.25000000
H       -0.93670000      -2.46440000      -3.59880000
H       -2.13010000      -2.20810000      -2.30190000
H       -1.71590000       0.14920000      -2.27980000
H       -0.40020000       0.02620000      -3.46400000
