20
Properties=species:S:1:pos:R:3 gdb_67126=T pbc="F F F"
C        0.02020000       1.59460000      -0.09930000
C        0.09730000       0.10800000       0.07260000
C        0.93100000      -0.86440000      -0.65510000
C        1.90290000      -1.74680000       0.14600000
C        1.95120000      -1.26820000       1.63600000
C        0.50360000      -1.37060000       2.04690000
C       -0.36540000      -0.72580000       1.26410000
C       -1.38730000      -1.39820000       0.37420000
N       -0.60490000      -0.87700000      -0.82640000
H        0.77340000       2.10110000       0.51490000
H        0.19340000       1.86380000      -1.14560000
H       -0.96280000       1.97770000       0.19500000
H        1.31760000      -0.54900000      -1.62130000
H        1.62340000      -2.80590000       0.11500000
H        2.89100000      -1.67160000      -0.32400000
H        2.60840000      -1.89800000       2.24020000
H        2.34220000      -0.24610000       1.67180000
H        0.18700000      -2.25240000       2.60060000
H       -1.49080000      -2.48530000       0.45460000
H       -2.37660000      -0.93550000       0.30520000
