21
Properties=species:S:1:pos:R:3 gdb_110443=T pbc="F F F"
C        0.08440000       1.60530000       0.09380000
C        0.12850000       0.08340000       0.02540000
C        0.80360000      -0.64620000      -1.13900000
C        2.28660000      -0.84960000      -0.77840000
C        1.22530000      -1.78670000      -0.24920000
C        1.08380000      -0.74730000       0.93990000
C        2.51800000      -0.24520000       0.60620000
C        3.59590000      -0.96160000       1.39980000
O        3.50510000      -0.52060000       2.74980000
H        1.06360000       2.05660000      -0.08670000
H       -0.60400000       2.00310000      -0.66040000
H       -0.26830000       1.94480000       1.07440000
H       -0.88500000      -0.31900000       0.14160000
H        0.48050000      -0.70210000      -2.17170000
H        3.02000000      -1.04790000      -1.55110000
H        1.08590000      -2.85420000      -0.33390000
H        0.82040000      -0.96890000       1.97170000
H        2.68940000       0.83450000       0.68080000
H        3.45140000      -2.05110000       1.32360000
H        4.58680000      -0.73010000       0.97560000
H        4.18460000      -0.97130000       3.25910000
