19
Properties=species:S:1:pos:R:3 gdb_39302=T pbc="F F F"
C       -0.09970000       1.55770000      -0.06330000
C        1.37290000       2.01650000       0.14570000
C        2.07790000       0.79970000       0.76920000
O        1.78590000       0.67980000       2.16010000
C        0.50580000       0.13970000       2.47430000
C        0.01690000      -0.73990000       1.33310000
O        1.17370000      -1.50360000       0.88530000
C        1.46230000      -0.40460000      -0.00190000
C       -0.01700000       0.02540000      -0.02930000
H       -0.76220000       1.95050000       0.71460000
H       -0.49850000       1.90980000      -1.01840000
H        1.83470000       2.25010000      -0.82120000
H        1.47600000       2.89960000       0.78030000
H        3.16730000       0.85660000       0.70590000
H        0.63510000      -0.46030000       3.38170000
H       -0.22170000       0.93680000       2.69600000
H       -0.83200000      -1.37090000       1.61030000
H        2.01230000      -0.70090000      -0.89830000
H       -0.63850000      -0.49260000      -0.75990000
