16
Properties=species:S:1:pos:R:3 gdb_41052=T pbc="F F F"
C        0.02990000       1.48620000       0.27430000
C        1.51980000       1.59600000      -0.24760000
C        1.45600000       0.11580000      -0.67600000
C        1.58860000      -1.25500000       0.01710000
O        0.55230000      -0.93610000       0.98230000
C        0.07540000      -0.01840000      -0.04950000
C       -0.28480000      -0.80130000      -1.31910000
C        0.87480000      -1.73930000      -1.28980000
N        1.00950000      -0.44850000      -2.03760000
H       -0.11960000       1.70610000       1.33220000
H       -0.69720000       2.04910000      -0.31480000
H        1.66960000       2.28290000      -1.08270000
H        2.26340000       1.81240000       0.52190000
H        2.44900000      -1.78570000       0.42570000
H       -1.21880000      -0.98360000      -1.83750000
H        0.91290000      -2.69520000      -1.79440000
