16
Properties=species:S:1:pos:R:3 gdb_83416=T pbc="F F F"
O        0.07460000       1.45550000       0.28990000
C        0.04430000       0.06650000       0.17270000
C       -0.38490000      -0.74560000       1.34170000
C       -1.54560000      -0.07210000       2.07730000
N       -2.35520000      -0.02580000       0.81480000
H       -3.32390000      -1.46520000      -0.31740000
H       -2.51850000       0.92860000       0.49940000
C       -1.26800000      -0.67000000       0.06560000
C       -1.57740000      -1.72190000      -0.94000000
O       -2.89210000      -2.00640000      -1.00630000
O       -0.75180000      -2.27370000      -1.62010000
H        0.05620000       1.83140000      -0.59700000
H        0.83580000      -0.38780000      -0.42040000
H        0.18490000      -1.59330000       1.69840000
H       -2.02160000      -0.71440000       2.82180000
H       -1.32630000       0.90400000       2.51690000
