23
Properties=species:S:1:pos:R:3 gdb_76675=T pbc="F F F"
C       -0.30280000       1.23290000      -1.49910000
C       -0.06050000      -0.08200000      -0.78630000
C        1.32270000      -0.60050000      -0.44070000
C        2.59820000       0.14460000      -0.77620000
C        0.37770000      -0.16470000       0.66290000
C        0.61200000       1.06560000       1.52200000
C       -0.65040000       1.51670000       2.22220000
C       -0.93620000       2.92810000       2.50640000
O       -1.60410000       2.24540000       1.44320000
H        0.47950000       1.97110000      -1.30600000
H       -0.34150000       1.08040000      -2.58350000
H       -1.24910000       1.67750000      -1.17750000
H       -0.77040000      -0.85140000      -1.08120000
H        1.43760000      -1.67870000      -0.52950000
H        2.49420000       1.22860000      -0.68950000
H        3.41370000      -0.15860000      -0.10960000
H        2.91550000      -0.07070000      -1.80270000
H       -0.06610000      -0.98150000       1.22980000
H        1.36830000       0.84320000       2.28820000
H        0.99850000       1.90120000       0.93250000
H       -1.10710000       0.77120000       2.87740000
H       -1.56260000       3.20010000       3.35500000
H       -0.22300000       3.69130000       2.19590000
