22
Properties=species:S:1:pos:R:3 gdb_96023=T pbc="F F F"
C       -0.55670000       1.44650000      -0.07160000
C       -0.02150000       0.01600000      -0.01640000
C        1.04930000      -0.31020000      -1.08480000
C        1.87060000      -1.50230000      -0.51870000
C        1.31410000      -1.75860000       0.90640000
C        0.62410000      -0.44300000       1.31580000
C        1.62430000       0.59560000       1.88210000
C        2.25510000       0.14430000       3.12030000
N        2.74350000      -0.22620000       4.10040000
H        0.24610000       2.18650000       0.01850000
H       -1.05890000       1.63310000      -1.02640000
H       -1.28370000       1.63750000       0.72550000
H       -0.86940000      -0.66370000      -0.17650000
H        0.59090000      -0.53650000      -2.05150000
H        1.69320000       0.56160000      -1.24920000
H        1.78340000      -2.39550000      -1.14240000
H        2.93610000      -1.25620000      -0.48420000
H        0.56190000      -2.55390000       0.87840000
H        2.08260000      -2.07510000       1.61670000
H       -0.13930000      -0.61430000       2.08160000
H        2.41470000       0.81380000       1.15460000
H        1.11670000       1.54370000       2.08740000
