23
Properties=species:S:1:pos:R:3 gdb_100050=T pbc="F F F"
C       -1.46840000       0.23880000       1.92840000
O       -1.26400000      -0.52320000       0.75910000
C        0.09040000      -0.76120000       0.34030000
C        0.81590000       0.56540000       0.05400000
C        0.88050000      -1.58070000       1.37100000
C       -0.05120000      -1.52060000      -0.99210000
O        0.46200000      -2.85280000      -1.09290000
C       -0.95020000      -2.65760000      -1.24980000
C       -1.87830000      -3.30540000      -0.25600000
H       -1.01570000      -0.21770000       2.81950000
H       -1.09330000       1.26750000       1.83740000
H       -2.55040000       0.28280000       2.07890000
H        1.00320000       1.13380000       0.96870000
H        1.78430000       0.36790000      -0.41570000
H        0.22320000       1.18530000      -0.62610000
H        0.36630000      -2.50770000       1.62780000
H        1.85710000      -1.84990000       0.96140000
H        1.04550000      -1.00280000       2.28480000
H        0.19550000      -0.90570000      -1.85990000
H       -1.27720000      -2.76760000      -2.28720000
H       -1.56610000      -3.13860000       0.77360000
H       -2.88550000      -2.89280000      -0.37150000
H       -1.92940000      -4.38350000      -0.44410000
