18
Properties=species:S:1:pos:R:3 gdb_28317=T pbc="F F F"
N        0.07390000       1.41530000       0.30090000
C       -0.03870000       0.03420000       0.06120000
C       -1.18320000      -0.74350000      -0.00990000
N       -0.75090000      -2.05420000      -0.02920000
C       -0.90980000      -3.32310000      -0.77730000
C        0.64620000      -3.50090000      -0.67600000
C        0.62560000      -2.09880000      -0.08600000
C        1.12080000      -0.81540000      -0.03800000
N        2.43670000      -0.29390000      -0.10550000
H        0.86910000       1.79690000      -0.20120000
H       -0.76010000       1.92640000       0.04080000
H       -2.22010000      -0.46550000       0.09730000
H       -1.54080000      -4.06140000      -0.27410000
H       -1.25800000      -3.17900000      -1.80510000
H        0.98170000      -4.30570000      -0.01520000
H        1.14490000      -3.60620000      -1.64310000
H        3.11430000      -1.02000000      -0.30520000
H        2.70820000       0.14150000       0.77230000
