16
Properties=species:S:1:pos:R:3 gdb_18227=T pbc="F F F"
O        0.03670000      -0.07490000       0.05470000
C        0.09210000       1.12770000       0.07970000
C        1.36940000       1.93790000       0.04440000
C        1.41980000       2.89080000      -1.18680000
C        2.22590000       4.13170000      -0.73210000
C        1.99270000       4.19010000       0.76230000
O        0.61700000       4.02690000       1.13710000
C        1.49030000       2.89210000       1.22860000
H       -0.82980000       1.75060000       0.12910000
H        2.21430000       1.24130000       0.05380000
H        1.85340000       2.39810000      -2.05900000
H        0.40290000       3.19220000      -1.45230000
H        3.29900000       4.00300000      -0.91750000
H        1.90930000       5.04330000      -1.24750000
H        2.57080000       4.85480000       1.39900000
H        1.65940000       2.50840000       2.23120000
