19
Properties=species:S:1:pos:R:3 gdb_41980=T pbc="F F F"
C        0.02670000       1.57160000       0.01950000
O        1.39080000       1.96430000      -0.16820000
C        2.01480000       0.98580000      -0.96450000
C        2.55310000      -0.25660000      -0.29080000
O        2.75710000      -0.42790000       1.07470000
C        1.68150000      -0.10170000       1.95260000
C        0.32110000      -0.55810000       1.42430000
C        0.03230000       0.03000000       0.03140000
C        1.18500000      -0.28340000      -0.93690000
H       -0.32490000       2.02030000       0.95420000
H       -0.59310000       1.95320000      -0.80560000
H        2.48630000       1.37150000      -1.86450000
H        3.35180000      -0.76120000      -0.82740000
H        1.91650000      -0.61120000       2.89210000
H        1.67490000       0.97780000       2.14720000
H        0.30390000      -1.65260000       1.36430000
H       -0.45440000      -0.25720000       2.13830000
H       -0.91290000      -0.36590000      -0.34980000
H        0.99570000      -0.89120000      -1.81380000
