13
Properties=species:S:1:pos:R:3 gdb_129562=T pbc="F F F"
N       -0.25060000       1.37090000       0.12720000
C        0.01330000      -0.06060000      -0.02460000
C        0.80550000      -0.39500000      -1.23540000
N        1.39720000      -0.61240000      -2.20420000
C        0.68820000      -0.58780000       1.20780000
C        0.35290000      -1.57400000       2.07750000
O        1.27410000      -1.64070000       3.03130000
N        2.23830000      -0.62430000       2.72810000
N        1.86650000      -0.04860000       1.67750000
H        0.62770000       1.85770000       0.28490000
H       -0.64730000       1.74200000      -0.73120000
H       -0.94910000      -0.57550000      -0.12610000
H       -0.47050000      -2.26730000       2.13190000
