14
Properties=species:S:1:pos:R:3 gdb_130034=T pbc="F F F"
N       -0.05230000       1.37410000       0.13090000
C        0.00150000       0.00830000       0.03210000
N       -1.05520000      -0.74380000       0.01800000
C       -0.63410000      -2.15250000      -0.00870000
C        0.86140000      -2.06220000      -0.02780000
C        1.25210000      -0.76120000       0.00160000
C        2.66720000      -0.84940000      -0.00250000
N        3.07120000      -2.10120000      -0.03640000
O        1.89220000      -2.89290000      -0.05070000
H        0.71110000       1.89340000      -0.27200000
H       -0.96550000       1.76910000      -0.04180000
H       -1.01110000      -2.68980000       0.87050000
H       -1.04160000      -2.65990000      -0.89160000
H        3.42310000      -0.07670000       0.01780000
