14
Properties=species:S:1:pos:R:3 gdb_17228=T pbc="F F F"
N        0.08600000      -1.09390000      -0.09560000
C        0.04950000       0.06140000      -0.02680000
C       -0.02340000       1.47880000       0.07400000
C       -1.10890000       2.36020000       0.68690000
N       -0.53810000       3.53700000      -0.07020000
C        0.81360000       3.70130000       0.60370000
C        1.24390000       2.38190000      -0.01110000
C        0.14610000       2.52360000      -1.00990000
H       -2.09980000       2.11690000       0.29900000
H       -1.14750000       2.48550000       1.77340000
H        1.33570000       4.55210000       0.16000000
H        0.77280000       3.81230000       1.69170000
H        2.22170000       1.93560000      -0.13910000
H        0.06610000       2.47930000      -2.08630000
