18
Properties=species:S:1:pos:R:3 gdb_78796=T pbc="F F F"
C        0.01950000       1.51920000       0.05860000
N        0.07790000       0.06200000      -0.00070000
C        0.77900000      -0.55670000      -1.12560000
C        2.30370000      -0.52960000      -0.87560000
C        1.36010000      -1.62870000      -0.29490000
C        1.05630000      -0.63250000       0.89700000
C        0.67050000      -0.92940000       2.31430000
C        2.45180000      -0.03950000       0.52650000
O        3.36610000       0.37310000       1.18610000
H        0.99620000       2.01450000      -0.06810000
H       -0.65380000       1.87910000      -0.72560000
H       -0.39800000       1.82470000       1.02270000
H        0.38070000      -0.58830000      -2.13300000
H        3.04570000      -0.63430000      -1.65450000
H        1.44120000      -2.70150000      -0.36670000
H        1.46920000      -1.47800000       2.82200000
H        0.51120000       0.00290000       2.86600000
H       -0.25180000      -1.51480000       2.35650000
