19
Properties=species:S:1:pos:R:3 gdb_115431=T pbc="F F F"
O        0.67190000       0.82890000       0.96160000
C        0.22650000      -0.29860000       0.24110000
C       -1.24460000      -0.17230000      -0.14420000
C       -1.85480000      -1.45490000      -0.74990000
C       -2.75070000      -2.00470000       0.39110000
C       -3.14110000      -0.69580000       1.10800000
O       -1.96790000       0.09470000       1.07260000
C       -3.87600000      -2.81080000      -0.04880000
C       -4.81830000      -3.46120000      -0.41500000
H        0.02000000       0.96870000       1.65920000
H        0.84320000      -0.37080000      -0.66160000
H        0.36370000      -1.23050000       0.81720000
H       -1.36740000       0.68680000      -0.81690000
H       -2.46840000      -1.22660000      -1.62420000
H       -1.09230000      -2.17610000      -1.05500000
H       -2.12960000      -2.59120000       1.07890000
H       -3.97280000      -0.20850000       0.57690000
H       -3.42890000      -0.84140000       2.15200000
H       -5.64780000      -4.04190000      -0.73480000
