15
Properties=species:S:1:pos:R:3 gdb_66052=T pbc="F F F"
O        0.12560000       1.40860000       0.03010000
C        0.07290000       0.00400000       0.00350000
C        0.08130000      -0.53140000       1.45330000
O       -1.31800000      -0.87310000       1.39860000
C       -1.39170000      -0.59430000      -0.01550000
C       -2.44950000       0.31350000      -0.40750000
C       -3.30140000       1.07930000      -0.77280000
C        0.99910000      -0.57640000      -0.95820000
C        1.74410000      -1.05070000      -1.77380000
H       -0.22590000       1.73940000      -0.80580000
H        0.71650000      -1.40830000       1.61540000
H        0.29310000       0.24400000       2.19480000
H       -1.44760000      -1.52440000      -0.59510000
H       -4.06910000       1.74600000      -1.08100000
H        2.41230000      -1.46700000      -2.48710000
