18
Properties=species:S:1:pos:R:3 gdb_65237=T pbc="F F F"
C        0.12170000       1.45240000      -0.44240000
C        0.09080000      -0.02690000      -0.12690000
C        1.30120000      -0.83440000      -0.34220000
O        0.91780000      -0.43760000       0.97670000
C       -1.25110000      -0.72160000      -0.17140000
C       -2.41830000      -0.15630000       0.69930000
N       -3.14910000       0.07430000      -0.54990000
C       -2.17120000      -0.39850000      -1.38790000
O       -2.08830000      -0.49610000      -2.58260000
H        1.13700000       1.83860000      -0.32950000
H       -0.21150000       1.63070000      -1.46950000
H       -0.52890000       2.02010000       0.23080000
H        1.21480000      -1.89850000      -0.55770000
H        2.19850000      -0.35640000      -0.73270000
H       -1.11620000      -1.79660000      -0.03530000
H       -2.88460000      -0.88670000       1.36700000
H       -2.18700000       0.75440000       1.25890000
H       -4.07740000       0.42260000      -0.73840000
