23
Properties=species:S:1:pos:R:3 gdb_105104=T pbc="F F F"
C       -0.04950000       0.62480000       0.77340000
C       -0.48550000       0.41780000      -0.68300000
C        0.50290000      -0.37180000      -1.52910000
C        0.80470000       0.11770000      -2.88470000
O        1.72720000       0.33180000      -1.81230000
C        0.67540000      -1.84490000      -1.21880000
C        1.67430000      -2.68890000      -2.05920000
C        2.06850000      -3.44840000      -0.76570000
C        1.47040000      -2.27700000       0.05420000
H       -0.00450000      -0.31590000       1.32830000
H        0.94000000       1.08980000       0.81250000
H       -0.75290000       1.28240000       1.29320000
H       -1.45860000      -0.08910000      -0.71620000
H       -0.62790000       1.39770000      -1.15130000
H        1.14000000      -0.57500000      -3.65480000
H        0.30650000       1.01250000      -3.25660000
H       -0.31380000      -2.31810000      -1.21810000
H        1.27720000      -3.26690000      -2.89740000
H        2.49780000      -2.06100000      -2.41030000
H        1.48830000      -4.36760000      -0.64110000
H        3.12530000      -3.68240000      -0.61930000
H        2.23190000      -1.53320000       0.30370000
H        0.90310000      -2.52100000       0.95550000
