15
Properties=species:S:1:pos:R:3 gdb_45445=T pbc="F F F"
O       -0.02840000      -0.01210000      -0.04040000
C        0.00270000       1.18130000       0.01040000
O       -1.13160000       1.93830000       0.08010000
C       -0.82960000       3.34930000       0.05010000
C        0.03070000       3.66740000       1.26970000
O        1.21740000       2.87120000       1.19990000
C        1.23340000       2.08860000       0.00430000
C        1.11910000       3.02590000      -1.20110000
O       -0.16220000       3.67640000      -1.13420000
H       -1.78670000       3.86940000       0.04710000
H        0.29610000       4.73120000       1.26860000
H       -0.51150000       3.43190000       2.19250000
H        2.14910000       1.50000000       0.00400000
H        1.91660000       3.77700000      -1.15930000
H        1.18320000       2.48190000      -2.14960000
