15
Properties=species:S:1:pos:R:3 gdb_28822=T pbc="F F F"
C       -0.45440000       1.38370000       0.14960000
C        0.00410000      -0.03890000      -0.01560000
N       -0.04430000      -0.57850000      -1.18680000
C        0.31740000      -1.87320000      -1.49390000
C        0.27170000      -2.96820000      -0.70460000
C       -0.15440000      -2.90800000       0.70760000
O       -0.93330000      -3.67800000       1.21770000
N        0.52670000      -1.94060000       1.46990000
C        0.57400000      -0.70010000       1.17370000
H        0.35200000       2.00830000       0.55190000
H       -0.77740000       1.78470000      -0.81120000
H       -1.28410000       1.44080000       0.86420000
H        0.56100000      -1.99950000      -2.54660000
H        0.43730000      -3.95300000      -1.13080000
H        1.11630000      -0.04600000       1.86380000
