15
Properties=species:S:1:pos:R:3 gdb_129512=T pbc="F F F"
N       -0.20840000       1.42200000       0.17360000
C        0.10720000       0.07150000       0.09060000
O        1.24360000      -0.34780000       0.07120000
N       -1.01940000      -0.74160000       0.07550000
C       -0.97460000      -2.13400000       0.06280000
C        0.06170000      -3.04630000       0.08390000
C       -0.58970000      -4.29930000       0.03520000
N       -1.91120000      -4.19390000      -0.01100000
N       -2.12700000      -2.85380000       0.00450000
H        0.59620000       2.00890000       0.01070000
H       -1.04450000       1.74320000      -0.29180000
H       -1.89850000      -0.31650000       0.32510000
H        1.10960000      -2.81810000       0.13320000
H       -0.13500000      -5.27950000       0.03720000
H       -3.07090000      -2.51310000      -0.05850000
