21
Properties=species:S:1:pos:R:3 gdb_78480=T pbc="F F F"
C       -0.01260000       1.50380000       0.02060000
C        0.04740000      -0.01000000       0.02970000
C        1.39850000      -0.63240000      -0.21370000
C        0.77290000      -0.64880000       1.18630000
C        0.71100000      -2.18990000       1.15860000
C       -0.63060000      -2.90070000       0.96260000
O       -0.91970000      -2.82660000      -0.43550000
C        0.31520000      -2.87590000      -1.15400000
C        1.35010000      -2.17320000      -0.27150000
H        0.90290000       1.94070000       0.43490000
H       -0.13290000       1.88880000      -0.99780000
H       -0.85480000       1.86990000       0.61790000
H       -0.83480000      -0.49890000      -0.37020000
H        2.22900000      -0.03580000      -0.57410000
H        1.05340000      -0.06670000       2.05690000
H        1.32760000      -2.65310000       1.93030000
H       -0.55820000      -3.95360000       1.28170000
H       -1.46640000      -2.43450000       1.49270000
H        0.61040000      -3.92290000      -1.33340000
H        0.14850000      -2.39220000      -2.12090000
H        2.34030000      -2.62660000      -0.33580000
