17
Properties=species:S:1:pos:R:3 gdb_98877=T pbc="F F F"
C        0.03160000       1.34870000       0.01000000
O       -0.03130000      -0.08180000       0.00310000
C       -1.28460000      -0.59000000       0.00970000
O       -2.30010000       0.06560000       0.02060000
N       -1.25730000      -1.96080000       0.00240000
C       -2.47510000      -2.78080000       0.00680000
C       -1.86780000      -4.21470000      -0.00570000
N       -0.39950000      -4.06160000      -0.01590000
C       -0.15330000      -2.81520000      -0.01070000
H        1.09350000       1.59490000       0.00310000
H       -0.46210000       1.76210000      -0.87280000
H       -0.44840000       1.75290000       0.90450000
H       -3.07380000      -2.56820000       0.89620000
H       -3.08690000      -2.55830000      -0.87120000
H       -2.16430000      -4.79560000       0.87320000
H       -2.17750000      -4.78590000      -0.88650000
H        0.83770000      -2.37990000      -0.01570000
