18
Properties=species:S:1:pos:R:3 gdb_55232=T pbc="F F F"
C       -0.04450000       1.47900000       0.04640000
C        0.01230000      -0.03970000       0.03500000
O        1.06050000      -0.65830000       0.10310000
N       -1.19210000      -0.68740000      -0.04650000
C       -1.24250000      -2.15650000      -0.07140000
C       -2.66940000      -2.48630000       0.37630000
C       -3.48300000      -1.24350000       0.02340000
O       -4.67650000      -1.15860000      -0.07180000
C       -2.50090000      -0.08340000      -0.20030000
H        0.97600000       1.85480000       0.10950000
H       -0.51870000       1.86930000      -0.86020000
H       -0.61840000       1.85080000       0.90190000
H       -1.04470000      -2.53500000      -1.08330000
H       -0.46290000      -2.54980000       0.58070000
H       -3.09830000      -3.37880000      -0.08200000
H       -2.72350000      -2.61350000       1.46480000
H       -2.69720000       0.70860000       0.53130000
H       -2.67850000       0.34170000      -1.19910000
