17
Properties=species:S:1:pos:R:3 gdb_97509=T pbc="F F F"
C       -0.64300000       1.40900000      -0.88940000
C       -0.25320000      -0.03770000      -0.53680000
C        0.86510000      -0.54440000      -1.31850000
C        1.79880000      -0.94760000      -1.97000000
C        2.91510000      -1.47260000      -2.72310000
O        3.39560000      -2.56870000      -2.51880000
C        3.47010000      -0.59040000      -3.80840000
C        2.56860000       0.14120000      -4.72230000
O        3.27080000       0.81770000      -3.69230000
H        0.19720000       2.08840000      -0.72590000
H       -0.94170000       1.48690000      -1.93800000
H       -1.48040000       1.73600000      -0.26670000
H        0.00500000      -0.10840000       0.52770000
H       -1.11320000      -0.70510000      -0.67900000
H        4.44630000      -0.90990000      -4.16790000
H        2.90730000       0.33640000      -5.73850000
H        1.49220000       0.06540000      -4.58130000
