25
Properties=species:S:1:pos:R:3 gdb_109577=T pbc="F F F"
C        0.50200000       1.33580000       0.55090000
C        0.44550000      -0.15400000       0.23670000
C        1.07550000      -0.71220000      -1.08550000
C        2.15380000       0.14760000      -1.74720000
C        1.55950000      -1.95220000      -0.26450000
C        2.92490000      -2.55500000      -0.53110000
O        3.11440000      -3.61180000       0.40610000
C        1.29730000      -1.17420000       1.06610000
C        2.52850000      -0.63170000       1.79000000
H        1.52190000       1.73080000       0.53640000
H       -0.08470000       1.91190000      -0.17380000
H        0.08500000       1.53950000       1.54360000
H       -0.60290000      -0.47090000       0.27480000
H        0.33180000      -0.96220000      -1.84980000
H        2.94460000       0.45070000      -1.05530000
H        2.62910000      -0.39030000      -2.57500000
H        1.71600000       1.06180000      -2.16210000
H        0.82740000      -2.76140000      -0.35680000
H        2.96570000      -2.93350000      -1.56610000
H        3.71730000      -1.79930000      -0.43120000
H        3.99510000      -3.97470000       0.27410000
H        0.70790000      -1.74590000       1.78940000
H        3.16470000      -0.01280000       1.14970000
H        2.23740000      -0.01720000       2.64860000
H        3.13760000      -1.46290000       2.15810000
