17
Properties=species:S:1:pos:R:3 gdb_19468=T pbc="F F F"
O        0.11640000       0.06510000       0.49810000
C        0.10030000       1.24270000       0.20960000
N        1.14250000       1.92500000      -0.34800000
C        2.59280000       1.60490000      -0.22550000
C        2.83020000       2.96410000      -0.94070000
C        1.56350000       3.33810000      -0.12320000
C        2.09010000       3.30150000       1.33510000
C        2.88240000       1.95110000       1.25620000
H       -0.80340000       1.88030000       0.30920000
H        2.93630000       0.65280000      -0.62250000
H        3.75400000       3.50170000      -0.71910000
H        2.63710000       2.91440000      -2.01210000
H        0.87850000       4.13170000      -0.41930000
H        2.72320000       4.16190000       1.56730000
H        1.27490000       3.27270000       2.06220000
H        2.48780000       1.18690000       1.92810000
H        3.95130000       2.06880000       1.45090000
