22
Properties=species:S:1:pos:R:3 gdb_102808=T pbc="F F F"
C        0.47250000       1.49620000       0.11550000
C        0.21910000      -0.01270000       0.09880000
C       -1.26130000      -0.40270000      -0.03470000
N       -1.82160000       0.12080000      -1.27980000
C       -2.97140000       0.84470000      -1.35190000
O       -3.71610000       1.07570000      -0.42290000
C       -1.44880000      -1.93640000       0.03820000
C       -2.90570000      -2.35810000       0.20370000
O       -0.84790000      -2.56470000      -1.09530000
H        1.54020000       1.71020000       0.22160000
H        0.12700000       1.97340000      -0.80660000
H       -0.05070000       1.97670000       0.94920000
H        0.77940000      -0.49130000      -0.71420000
H        0.59800000      -0.45810000       1.02630000
H       -1.84230000       0.06130000       0.76860000
H       -1.26310000       0.03560000      -2.11500000
H       -3.16370000       1.20550000      -2.38280000
H       -0.87140000      -2.29680000       0.89820000
H       -3.51600000      -1.99690000      -0.63170000
H       -2.97770000      -3.44860000       0.24080000
H       -3.33510000      -1.94600000       1.12130000
H       -1.48370000      -2.51130000      -1.81710000
