20
Properties=species:S:1:pos:R:3 gdb_29690=T pbc="F F F"
C        0.03060000       1.42910000       0.01480000
N       -0.00090000      -0.01610000       0.00060000
C        0.00180000      -0.81580000      -1.11910000
C       -0.03330000      -0.27630000      -2.51170000
C        0.04080000      -2.12950000      -0.69590000
C        0.06920000      -2.11310000       0.72330000
O        0.10320000      -3.18100000       1.58190000
C        0.04780000      -0.80460000       1.14670000
C        0.06520000      -0.25120000       2.53040000
H        1.02270000       1.81460000       0.28240000
H       -0.23000000       1.81210000      -0.97240000
H       -0.69340000       1.82350000       0.73440000
H        0.83480000       0.35270000      -2.74750000
H       -0.03320000      -1.10920000      -3.21880000
H       -0.93140000       0.32180000      -2.71400000
H        0.03880000      -2.99800000      -1.33900000
H        0.14250000      -3.98570000       1.05850000
H        0.92320000       0.40870000       2.71530000
H       -0.84040000       0.32080000       2.77430000
H        0.12870000      -1.08100000       3.23810000
