12
Properties=species:S:1:pos:R:3 gdb_22464=T pbc="F F F"
O       -0.07170000       1.34800000       0.00960000
N        0.06720000      -0.01540000       0.00100000
C       -1.07870000      -0.62800000       0.00890000
C       -1.06140000      -2.05350000       0.00110000
C       -1.09720000      -3.25530000      -0.00500000
C       -2.33780000       0.03730000       0.02460000
C       -3.41650000       0.58300000       0.03800000
C       -4.68120000       1.27620000       0.05400000
O       -5.75770000       0.72570000       0.06040000
H        0.84320000       1.65530000       0.00230000
H       -1.12080000      -4.31740000      -0.01070000
H       -4.59020000       2.38030000       0.06010000
