14
Properties=species:S:1:pos:R:3 gdb_42296=T pbc="F F F"
O       -0.03180000      -0.05460000       0.00340000
C       -0.00240000       1.15890000       0.00710000
C        1.21860000       1.93260000       0.00050000
C        2.26330000       2.52580000      -0.00530000
N       -1.17260000       1.90010000       0.01800000
C       -2.55920000       1.40340000       0.02670000
C       -3.03000000       2.88510000       0.03490000
C       -1.53880000       3.26600000       0.02510000
O       -0.89250000       4.26910000       0.02350000
H        3.18060000       3.06290000      -0.01010000
H       -2.81090000       0.82770000      -0.86600000
H       -2.79770000       0.82210000       0.91940000
H       -3.57490000       3.21470000      -0.85110000
H       -3.56180000       3.20900000       0.93100000
