17
Properties=species:S:1:pos:R:3 gdb_68179=T pbc="F F F"
C        0.07110000       1.54130000       0.05410000
C        0.00860000       0.04300000      -0.02370000
C        0.62730000      -0.82500000      -1.17280000
C        0.61220000      -1.81000000       0.02590000
O        0.90750000      -0.68210000       0.89700000
C       -0.91790000      -1.98800000       0.25600000
C       -1.31730000      -0.70580000       0.22190000
C       -1.60490000      -3.19840000       0.42780000
C       -2.14770000      -4.26620000       0.56930000
H        1.08870000       1.89600000      -0.12770000
H       -0.59280000       1.98870000      -0.69250000
H       -0.24370000       1.88660000       1.04380000
H        0.02020000      -1.04940000      -2.05210000
H        1.63710000      -0.50090000      -1.43690000
H        1.27030000      -2.66940000       0.13720000
H       -2.30370000      -0.27860000       0.32660000
H       -2.64030000      -5.19780000       0.69840000
