17
Properties=species:S:1:pos:R:3 gdb_128273=T pbc="F F F"
C       -0.00770000       1.34310000       0.25120000
N       -0.03920000      -0.04130000      -0.18060000
C       -1.18570000      -0.78000000      -0.07420000
N       -1.24230000      -2.10260000      -0.09120000
C       -2.58170000      -2.33160000      -0.01390000
O       -3.02840000      -3.58920000      -0.00840000
C       -4.44290000      -3.73440000       0.07610000
N       -3.36540000      -1.27110000       0.05710000
N       -2.42610000      -0.25540000       0.02620000
H        1.00700000       1.72640000       0.13200000
H       -0.65950000       1.95550000      -0.38320000
H       -0.31380000       1.48210000       1.29890000
H        0.78500000      -0.59210000       0.00370000
H       -4.63440000      -4.80810000       0.07030000
H       -4.82830000      -3.28560000       0.99750000
H       -4.93730000      -3.25680000      -0.77620000
H       -2.72820000       0.70200000       0.02570000
