21
Properties=species:S:1:pos:R:3 gdb_109699=T pbc="F F F"
C       -0.53830000       1.23940000      -1.91640000
C       -0.27750000      -0.05770000      -1.17910000
C        1.11730000      -0.56840000      -0.83870000
C        2.38160000       0.19310000      -1.16970000
O        3.37100000       0.09290000      -0.15050000
C        0.19840000      -0.07870000       0.24250000
C        0.42080000       1.08230000       1.21100000
O       -0.13260000       0.30280000       2.29710000
C       -0.36540000      -0.83480000       1.44020000
H        0.12210000       2.04620000      -1.58710000
H       -0.40490000       1.11920000      -2.99680000
H       -1.56690000       1.57500000      -1.74470000
H       -0.98350000      -0.84700000      -1.43160000
H        1.23380000      -1.65100000      -0.89820000
H        2.78030000      -0.14480000      -2.13910000
H        2.18040000       1.26350000      -1.26490000
H        3.53680000      -0.84170000       0.00940000
H        1.46840000       1.34970000       1.38990000
H       -0.16590000       1.99160000       1.02350000
H       -1.43100000      -1.09770000       1.38530000
H        0.20390000      -1.71760000       1.76350000
