27
Properties=species:S:1:pos:R:3 gdb_118462=T pbc="F F F"
C        1.73910000       0.87320000       0.19630000
C        1.48990000      -0.54230000      -0.33710000
C        1.17770000      -0.68110000      -1.84420000
C        1.16150000      -2.18010000      -2.22200000
C        1.49410000      -2.45690000      -3.68390000
O        1.40220000      -3.85980000      -3.89120000
C       -0.12420000       0.02390000      -2.34030000
C       -1.31890000      -0.14940000      -1.38960000
C        0.08240000       1.50310000      -2.70390000
H        2.49310000       1.39740000      -0.40160000
H        0.83410000       1.48660000       0.20050000
H        2.10610000       0.83150000       1.22720000
H        2.38880000      -1.13980000      -0.14090000
H        0.69150000      -1.01790000       0.24650000
H        2.01730000      -0.21770000      -2.38510000
H        1.88740000      -2.73060000      -1.61280000
H        0.18150000      -2.62030000      -2.00030000
H        0.80400000      -1.91610000      -4.35070000
H        2.51010000      -2.08860000      -3.90370000
H        1.60660000      -4.04080000      -4.81310000
H       -0.39960000      -0.47800000      -3.27740000
H       -1.18220000       0.40630000      -0.45630000
H       -2.23590000       0.22260000      -1.85860000
H       -1.48640000      -1.19980000      -1.13030000
H        0.89580000       1.62150000      -3.42780000
H       -0.82570000       1.91890000      -3.15450000
H        0.32440000       2.11630000      -1.83180000
