19
Properties=species:S:1:pos:R:3 gdb_39473=T pbc="F F F"
C       -0.01360000       1.38230000      -0.06010000
C        1.39850000       1.98810000       0.02250000
C        2.19480000       1.48350000       1.25690000
O        1.30540000       1.08850000       2.30790000
C        1.09450000      -0.32220000       2.18000000
C       -0.16420000      -0.56640000       1.32160000
O       -0.05450000      -0.03630000       0.01770000
C        2.35220000      -0.81590000       1.50830000
C        2.97430000       0.22030000       0.96150000
H       -0.64150000       1.81610000       0.72910000
H       -0.45620000       1.64730000      -1.02690000
H        1.95970000       1.75870000      -0.89020000
H        1.28420000       3.07850000       0.06150000
H        2.82830000       2.28760000       1.64880000
H        0.92990000      -0.73560000       3.18360000
H       -0.34110000      -1.64190000       1.20380000
H       -1.02830000      -0.13000000       1.84670000
H        2.61890000      -1.86180000       1.43220000
H        3.86680000       0.20700000       0.34890000
