19
Properties=species:S:1:pos:R:3 gdb_90821=T pbc="F F F"
C       -0.14670000       1.56380000      -0.05050000
C       -0.00030000       0.04920000       0.00200000
O        0.71300000      -0.42380000      -1.16740000
C        1.81760000      -1.17980000      -0.71480000
C        2.92580000      -0.40140000       0.00790000
C        2.87260000      -1.31340000       1.21380000
C        2.24140000       0.05360000       1.30470000
C        0.80860000      -0.49860000       1.18450000
C        1.48710000      -1.80350000       0.66930000
H        0.83270000       2.05000000      -0.02120000
H       -0.65010000       1.86520000      -0.97340000
H       -0.74220000       1.92280000       0.79620000
H       -1.00060000      -0.41060000      -0.01420000
H        2.15100000      -1.84940000      -1.50870000
H        3.77260000       0.12870000      -0.40800000
H        3.65470000      -1.78710000       1.78610000
H        2.58960000       0.91990000       1.85110000
H        0.26360000      -0.57150000       2.12650000
H        1.03120000      -2.78460000       0.77500000
