20
Properties=species:S:1:pos:R:3 gdb_63895=T pbc="F F F"
C       -0.33880000       1.62630000       0.00250000
C        0.00900000       0.13830000      -0.03990000
C       -1.27360000      -0.72110000      -0.00250000
C        0.91450000      -0.28130000      -1.22790000
C        1.82940000      -1.36050000      -0.63850000
C        2.98540000      -0.94950000       0.19840000
N        1.71320000      -1.35560000       0.82990000
C        0.86370000      -0.26200000       1.18330000
O        0.82270000       0.23450000       2.27590000
H        0.56040000       2.24780000      -0.05530000
H       -0.99380000       1.89760000      -0.83200000
H       -0.84870000       1.86800000       0.93880000
H       -1.90340000      -0.49220000      -0.86890000
H       -1.04230000      -1.79060000      -0.02260000
H       -1.84870000      -0.51610000       0.90520000
H        0.33070000      -0.67220000      -2.06490000
H        1.49130000       0.56970000      -1.60500000
H        1.83960000      -2.34360000      -1.09940000
H        3.81500000      -1.62820000       0.37260000
H        3.24670000       0.10590000       0.23180000
