16
Properties=species:S:1:pos:R:3 gdb_86769=T pbc="F F F"
C        0.32830000       1.51880000      -0.15050000
C        0.01990000       0.05150000       0.07810000
O        0.77620000      -0.85520000      -0.77340000
C        1.29210000      -1.63380000       0.32120000
C        2.82110000      -1.72560000       0.36470000
C        3.36280000      -2.57670000      -0.69170000
N        3.78190000      -3.25820000      -1.52500000
C        0.63650000      -0.64350000       1.30110000
O        0.67060000      -0.45930000       2.47790000
H        1.39640000       1.72130000      -0.03530000
H        0.02560000       1.81300000      -1.15920000
H       -0.22460000       2.12860000       0.57030000
H       -1.05860000      -0.14230000      -0.00910000
H        0.85000000      -2.63880000       0.35430000
H        3.25440000      -0.72420000       0.27740000
H        3.11640000      -2.12970000       1.34010000
