17
Properties=species:S:1:pos:R:3 gdb_74341=T pbc="F F F"
N        0.18350000       1.32900000       0.21590000
C       -0.02140000      -0.01550000       0.08990000
N       -1.12330000      -0.59610000      -0.19100000
C       -0.86150000      -2.03610000      -0.09400000
C        0.66870000      -2.13460000       0.18300000
O        1.08600000      -0.76240000       0.34530000
C       -1.69320000      -2.66460000       1.00380000
C       -2.94900000      -3.36210000       0.72200000
O       -1.75120000      -4.09450000       1.00130000
H        1.12760000       1.64260000       0.05410000
H       -0.53680000       1.89910000      -0.19810000
H       -1.11910000      -2.53770000      -1.03430000
H        0.91020000      -2.68120000       1.09870000
H        1.22780000      -2.57060000      -0.64930000
H       -1.55890000      -2.21780000       1.99100000
H       -3.72050000      -3.41970000       1.48800000
H       -3.30660000      -3.42480000      -0.30490000
