20
Properties=species:S:1:pos:R:3 gdb_109129=T pbc="F F F"
C        0.13150000       1.55360000       0.16010000
C        0.01140000       0.03720000      -0.07550000
C       -1.40240000      -0.47730000      -0.04130000
C       -2.02820000      -0.92270000      -1.13510000
N       -3.34430000      -1.40680000      -1.11150000
C       -4.21700000      -1.25010000      -0.05700000
O       -5.33550000      -1.72230000      -0.07220000
C       -3.66320000      -0.38980000       1.07120000
C       -2.14770000      -0.54540000       1.27450000
H        1.17990000       1.86790000       0.14460000
H       -0.40380000       2.11050000      -0.61530000
H       -0.28610000       1.84630000       1.12890000
H        0.46550000      -0.21230000      -1.04160000
H        0.60530000      -0.48590000       0.68790000
H       -1.55550000      -0.94890000      -2.11090000
H       -3.71200000      -1.90380000      -1.90840000
H       -3.88960000       0.65150000       0.80310000
H       -4.23080000      -0.62080000       1.97440000
H       -1.93300000      -1.50940000       1.76120000
H       -1.79240000       0.22370000       1.96790000
