23
Properties=species:S:1:pos:R:3 gdb_63655=T pbc="F F F"
C        0.07320000       1.46770000      -0.08890000
C        0.00650000      -0.02340000       0.16470000
C       -0.97220000      -0.76890000      -0.72000000
O        1.27600000      -0.68390000       0.32730000
C        0.39260000      -0.62420000       1.45650000
C        0.86930000       0.12230000       2.68290000
C        1.83730000      -0.70190000       3.51100000
C        3.28510000      -0.79090000       3.10270000
C        2.89640000      -0.02720000       4.34540000
H        0.83540000       1.95330000       0.52160000
H        0.31550000       1.65680000      -1.14060000
H       -0.89380000       1.93920000       0.11810000
H       -0.72100000      -0.62300000      -1.77650000
H       -0.94860000      -1.84080000      -0.50920000
H       -1.99390000      -0.40430000      -0.56620000
H       -0.06890000      -1.58850000       1.68980000
H        1.35280000       1.05810000       2.38650000
H       -0.00470000       0.39310000       3.29190000
H        1.40570000      -1.60690000       3.93230000
H        3.79900000      -1.73840000       3.22010000
H        3.58950000      -0.22740000       2.22780000
H        2.95120000       1.05650000       4.31550000
H        3.14170000      -0.45430000       5.31160000
