20
Properties=species:S:1:pos:R:3 gdb_39925=T pbc="F F F"
C       -0.12320000       1.49280000       0.02540000
N        1.20690000       0.86210000       0.06110000
C       -0.00650000       0.01070000       0.02370000
C       -0.27080000      -0.85860000       1.20500000
C       -0.59640000      -2.10270000       0.84780000
C       -0.61830000      -2.29230000      -0.64630000
C       -2.02820000      -2.31980000      -1.31410000
C       -1.90010000      -0.79980000      -1.60970000
C       -0.39760000      -0.83660000      -1.18290000
H       -0.40320000       2.02090000       0.93380000
H       -0.45410000       1.97440000      -0.89230000
H        1.62560000       0.89330000      -0.86630000
H       -0.17530000      -0.48960000       2.21980000
H       -0.82480000      -2.90880000       1.53760000
H        0.06680000      -3.08080000      -0.97460000
H       -2.04510000      -2.92810000      -2.22240000
H       -2.86040000      -2.62880000      -0.67660000
H       -2.09410000      -0.49750000      -2.64140000
H       -2.50440000      -0.17330000      -0.94940000
H        0.29730000      -0.73330000      -2.02030000
