18
Properties=species:S:1:pos:R:3 gdb_91667=T pbc="F F F"
O       -0.04610000       1.42340000      -0.02520000
C       -0.01150000       0.01490000       0.04550000
C        0.46640000      -0.58570000       1.41600000
C       -0.83460000      -1.33270000       1.76870000
O       -1.18200000      -1.93700000       0.47750000
C       -1.44570000      -0.55830000       0.06100000
C       -1.93110000      -0.30100000       1.48940000
C       -3.28430000      -0.23480000       2.05430000
N       -2.34570000       0.91620000       2.14180000
H        0.85780000       1.74510000      -0.09090000
H        0.54920000      -0.41460000      -0.79430000
H        1.31150000      -1.27020000       1.31720000
H        0.71860000       0.20650000       2.12750000
H       -0.85290000      -2.02300000       2.61270000
H       -2.06450000      -0.45420000      -0.82840000
H       -4.14560000      -0.06580000       1.41390000
H       -3.49290000      -0.81180000       2.95220000
H       -1.94550000       0.98830000       3.07470000
