17
Properties=species:S:1:pos:R:3 gdb_100425=T pbc="F F F"
C       -0.06950000       0.17270000      -0.60890000
O        0.21430000       0.64430000       0.70830000
C        0.64940000      -0.26550000       1.59710000
N        0.96890000       0.34290000       2.78340000
N        0.76730000      -1.50210000       1.30480000
H        0.74200000      -2.99410000       0.19370000
C        1.26800000      -2.42440000       2.30300000
C        1.37560000      -3.83920000       1.71280000
O        1.00230000      -3.91140000       0.43010000
O        1.75880000      -4.78340000       2.34890000
H       -0.86670000      -0.57510000      -0.59140000
H       -0.38770000       1.05180000      -1.16990000
H        0.82190000      -0.26630000      -1.06490000
H        0.60950000       1.27570000       2.91080000
H        0.98660000      -0.23330000       3.60820000
H        2.26690000      -2.15270000       2.67450000
H        0.61340000      -2.50350000       3.18530000
