18
Properties=species:S:1:pos:R:3 gdb_90189=T pbc="F F F"
C       -0.06140000       1.51540000      -0.08440000
C        0.00950000       0.00660000       0.06840000
O        0.80510000      -0.57020000      -1.03800000
C        1.75360000      -1.24870000      -0.26420000
C        2.99070000      -2.14650000      -0.17850000
N        2.65520000      -1.88420000       1.31210000
C        2.23720000      -0.43860000       0.94930000
C        0.75730000      -0.50500000       1.35620000
C        1.14810000      -1.93810000       0.96830000
H        0.93520000       1.96310000      -0.02700000
H       -0.50050000       1.78210000      -1.04940000
H       -0.68250000       1.94870000       0.70690000
H       -0.99320000      -0.43390000       0.00850000
H        2.89200000      -3.19630000      -0.46820000
H        3.95560000      -1.73440000      -0.48610000
H        2.95590000       0.37910000       0.97370000
H        0.34830000      -0.19740000       2.31970000
H        0.58650000      -2.87050000       1.01230000
