20
Properties=species:S:1:pos:R:3 gdb_7163=T pbc="F F F"
C        0.02860000       1.59840000      -0.02910000
C        0.01350000       0.06810000      -0.00890000
C        0.68740000      -0.52310000       1.23340000
C        0.73920000      -2.05630000       1.22270000
O        1.41270000      -2.55710000       0.07750000
C        1.35770000      -2.60450000       2.52940000
C        1.37220000      -4.05920000       2.60400000
C        1.37090000      -5.25910000       2.66770000
H        1.05370000       1.98590000      -0.01680000
H       -0.46220000       1.98860000      -0.92610000
H       -0.49040000       2.01530000       0.84160000
H       -1.02300000      -0.29070000      -0.05810000
H        0.51300000      -0.32710000      -0.89960000
H        1.71500000      -0.13570000       1.31690000
H        0.16260000      -0.18790000       2.13810000
H       -0.27980000      -2.45160000       1.13400000
H        2.33620000      -2.28580000       0.13320000
H        2.38290000      -2.21650000       2.62260000
H        0.80310000      -2.19580000       3.38380000
H        1.37280000      -6.31940000       2.71880000
