19
Properties=species:S:1:pos:R:3 gdb_85614=T pbc="F F F"
C       -1.03020000       1.04520000       0.01950000
C        0.31680000       0.33530000      -0.05860000
O        1.03750000       1.01050000      -1.11530000
C        2.21850000       0.54830000      -1.59100000
O        2.74530000       1.12850000      -2.50210000
C        2.82820000      -0.66690000      -0.91190000
C        3.35990000      -0.34180000       0.49550000
C        2.32600000       0.09390000       1.49550000
C        1.04210000       0.36730000       1.27090000
H       -0.89260000       2.08810000       0.31920000
H       -1.52660000       1.02610000      -0.95310000
H       -1.67370000       0.55180000       0.75380000
H        0.14300000      -0.70250000      -0.37320000
H        2.10260000      -1.48490000      -0.85290000
H        3.64900000      -0.99420000      -1.55150000
H        3.87220000      -1.23010000       0.88770000
H        4.13890000       0.42990000       0.42110000
H        2.69490000       0.19600000       2.51450000
H        0.42340000       0.66040000       2.11570000
