20
Properties=species:S:1:pos:R:3 gdb_69457=T pbc="F F F"
C        0.23870000       1.44990000       0.18900000
C        0.08170000      -0.03940000       0.00850000
C       -1.04570000      -0.77270000       0.64490000
N        0.31620000      -0.90680000       1.19040000
C        1.01810000      -2.11150000       0.71350000
C        0.92680000      -2.16480000      -0.82680000
C        0.70660000      -0.68990000      -1.22280000
C        2.45180000      -2.03420000       1.23050000
O        3.42420000      -2.38820000       0.61520000
H        1.29450000       1.73990000       0.14670000
H       -0.28990000       1.99400000      -0.60190000
H       -0.16420000       1.77080000       1.15290000
H       -1.73630000      -0.23780000       1.29120000
H       -1.48510000      -1.62230000       0.12750000
H        0.57830000      -3.00010000       1.19020000
H        1.84080000      -2.58570000      -1.24950000
H        0.09160000      -2.79250000      -1.14580000
H        0.08640000      -0.58150000      -2.11770000
H        1.66490000      -0.20060000      -1.43220000
H        2.52550000      -1.61570000       2.25740000
