21
Properties=species:S:1:pos:R:3 gdb_87452=T pbc="F F F"
C       -0.06740000       1.51710000      -0.04590000
C       -0.00250000       0.00640000       0.03050000
C        1.33290000      -0.71110000      -0.19900000
C        0.69330000      -0.68970000       1.14590000
C        1.17780000      -0.25290000       2.54440000
C       -0.21120000      -0.71360000       3.08350000
C        0.26240000      -1.82160000       2.08360000
O       -0.41290000      -2.94290000       1.64490000
C        1.67960000      -1.71660000       2.74040000
H        0.83400000       1.97080000       0.37940000
H       -0.15310000       1.85940000      -1.08330000
H       -0.92780000       1.91150000       0.50650000
H       -0.87150000      -0.50690000      -0.37650000
H        1.32370000      -1.63710000      -0.76590000
H        2.20630000      -0.08830000      -0.37270000
H        1.71010000       0.65680000       2.81000000
H       -0.24930000      -0.99110000       4.14160000
H       -1.07790000      -0.12210000       2.78140000
H       -0.57780000      -3.51860000       2.39900000
H        2.52590000      -2.03140000       2.12650000
H        1.76800000      -2.06030000       3.77570000
