15
Properties=species:S:1:pos:R:3 gdb_56418=T pbc="F F F"
O        1.36420000       1.42440000      -0.13800000
C        0.38710000       0.39780000       0.00320000
C        0.30950000      -0.45790000      -1.19110000
C        0.26900000      -1.14100000      -2.17820000
C        0.59770000      -0.40960000       1.21380000
C        0.80310000      -1.05420000       2.20780000
C        1.04010000      -1.83670000       3.42230000
C        2.22350000      -2.69500000       3.34490000
C        3.19270000      -3.40120000       3.29360000
H        2.22260000       0.99170000      -0.21700000
H       -0.56180000       0.94060000       0.10330000
H        0.22720000      -1.74730000      -3.04930000
H        1.13750000      -1.15830000       4.28100000
H        0.15560000      -2.45400000       3.63220000
H        4.04990000      -4.02600000       3.24410000
