23
Properties=species:S:1:pos:R:3 gdb_58756=T pbc="F F F"
C       -0.02940000       1.84460000       0.77490000
C       -0.07070000       0.32600000       0.59440000
O        0.28100000      -0.05160000      -0.73700000
C        0.78590000      -0.41290000       1.59850000
C        2.33960000      -0.31900000       1.77160000
C        1.85990000      -1.35880000       2.82340000
C        0.70700000      -0.37040000       3.15810000
C        0.96520000      -1.96860000       1.69730000
C       -0.20410000      -2.89330000       1.99910000
H        0.99550000       2.22110000       0.67270000
H       -0.64890000       2.32870000       0.01540000
H       -0.39590000       2.13720000       1.76390000
H       -1.10750000      -0.01710000       0.70750000
H        1.20130000       0.20140000      -0.87180000
H        2.95330000      -0.70430000       0.95110000
H        2.73580000       0.62190000       2.16340000
H        2.48690000      -1.90020000       3.53360000
H        1.00200000       0.57070000       3.63100000
H       -0.19020000      -0.77250000       3.63080000
H        1.54590000      -2.37680000       0.86230000
H       -0.83250000      -2.55120000       2.82550000
H       -0.84420000      -2.99630000       1.11590000
H        0.15890000      -3.89490000       2.25560000
