17
Properties=species:S:1:pos:R:3 gdb_22574=T pbc="F F F"
O       -0.05360000       1.35690000       0.14710000
N        0.08870000      -0.04230000       0.19080000
C       -1.02170000      -0.62300000      -0.04280000
C       -1.08240000      -2.12230000      -0.08430000
C       -2.05430000      -2.52530000      -1.20630000
C       -3.42430000      -1.95640000      -0.93190000
N       -4.48330000      -2.60910000      -1.16060000
O       -3.46160000      -0.71770000      -0.34950000
C       -2.30050000       0.11480000      -0.36240000
H        0.83640000       1.66060000       0.35360000
H       -0.08220000      -2.53270000      -0.23600000
H       -1.45780000      -2.51030000       0.87170000
H       -1.68260000      -2.14570000      -2.16710000
H       -2.15580000      -3.60640000      -1.30190000
H       -5.30120000      -2.05160000      -0.90410000
H       -2.48230000       0.89860000       0.37640000
H       -2.20250000       0.61400000      -1.33690000
