20
Properties=species:S:1:pos:R:3 gdb_10883=T pbc="F F F"
C       -0.18200000       1.55010000       0.81120000
C       -0.13830000       0.06690000       0.49260000
C        1.04790000      -0.49230000      -0.33620000
O        1.94590000      -0.23550000       0.81220000
C        0.72900000      -0.87430000       1.39210000
C        0.68530000      -1.08920000       2.87320000
C        0.80910000      -1.91780000       0.23170000
C       -0.34330000      -2.82030000      -0.17930000
H        0.81390000       1.91640000       1.06780000
H       -0.55410000       2.12190000      -0.04610000
H       -0.85610000       1.75050000       1.65170000
H       -1.12600000      -0.31900000       0.22630000
H        1.40600000      -0.19110000      -1.32220000
H        0.72260000      -0.13380000       3.40580000
H       -0.23910000      -1.60420000       3.15450000
H        1.53390000      -1.69930000       3.19760000
H        1.75150000      -2.47080000       0.28310000
H       -1.30240000      -2.30140000      -0.24930000
H       -0.14120000      -3.27430000      -1.15570000
H       -0.46090000      -3.63890000       0.53950000
