15
Properties=species:S:1:pos:R:3 gdb_77343=T pbc="F F F"
O        0.44450000       0.81080000       0.73320000
C        0.16060000      -0.33150000      -0.01190000
C       -1.34880000      -0.58300000      -0.23400000
C       -1.31910000      -1.40800000      -1.54260000
O       -0.19170000      -0.89970000      -2.27950000
C        0.64620000      -0.23120000      -1.44750000
N        1.66660000       0.43500000      -1.76390000
C       -2.03630000      -1.26030000       0.85520000
N       -2.58680000      -1.81780000       1.70420000
H        1.18520000       1.24270000       0.28020000
H        0.60360000      -1.23110000       0.44710000
H       -1.82310000       0.38840000      -0.41110000
H       -1.17300000      -2.47390000      -1.34020000
H       -2.21180000      -1.27680000      -2.15490000
H        1.84610000       0.43520000      -2.76730000
