19
Properties=species:S:1:pos:R:3 gdb_53806=T pbc="F F F"
C        0.38000000       1.42870000       0.01240000
C        0.21500000      -0.07090000       0.05520000
O        0.14560000      -0.69470000       1.09240000
C        0.13660000      -0.78320000      -1.28730000
N        0.21750000      -0.05600000      -2.34740000
N       -0.00220000      -2.13190000      -1.23880000
C       -0.20990000      -3.13970000      -0.18760000
C       -0.35420000      -4.20760000      -1.30880000
C       -0.16590000      -3.06570000      -2.34790000
H        1.28700000       1.69170000      -0.53860000
H       -0.44800000       1.88280000      -0.53860000
H        0.42210000       1.81230000       1.03230000
H        0.15570000      -0.62170000      -3.19620000
H        0.64210000      -3.26280000       0.48540000
H       -1.10290000      -2.97010000       0.42010000
H        0.43390000      -4.96090000      -1.32210000
H       -1.32370000      -4.70430000      -1.34920000
H       -1.03970000      -2.85340000      -2.97850000
H        0.71620000      -3.14880000      -2.99560000
