19
Properties=species:S:1:pos:R:3 gdb_102939=T pbc="F F F"
C        0.13990000       1.55430000      -0.05770000
N       -0.15660000       0.13600000       0.12840000
C        0.64870000      -0.51480000       1.15470000
C        0.15680000      -1.95220000       1.42650000
C       -1.23080000      -2.00300000       2.08680000
C       -1.57070000      -3.40370000       2.55800000
O       -2.57950000      -3.99420000       2.27830000
C        2.05790000      -0.55670000       0.71910000
N        3.16830000      -0.59690000       0.40320000
H        1.15710000       1.66730000      -0.44440000
H       -0.54850000       1.96710000      -0.79910000
H        0.05920000       2.15360000       0.86580000
H       -1.13450000       0.02020000       0.36690000
H        0.64370000       0.03790000       2.11590000
H        0.14730000      -2.49910000       0.47870000
H        0.88660000      -2.44380000       2.07910000
H       -1.23310000      -1.35400000       2.97580000
H       -2.03290000      -1.67500000       1.42000000
H       -0.79320000      -3.86690000       3.20990000
