21
Properties=species:S:1:pos:R:3 gdb_99173=T pbc="F F F"
C       -0.17980000       1.62400000       0.23290000
N       -0.09820000       0.19750000      -0.02290000
C       -1.25000000      -0.56770000      -0.01310000
O       -2.36900000      -0.08350000       0.01970000
N       -1.01380000      -1.92930000      -0.05290000
C       -2.08400000      -2.87780000      -0.21810000
C       -2.21340000      -3.69570000      -1.53580000
C       -2.67000000      -4.90420000      -0.67380000
C       -2.02320000      -4.21840000       0.56080000
H        0.62270000       2.14500000      -0.29740000
H       -1.14350000       1.97330000      -0.13770000
H       -0.11510000       1.87110000       1.30140000
H        0.75800000      -0.25930000       0.24960000
H       -0.08900000      -2.23920000      -0.30980000
H       -3.00640000      -2.33540000      -0.00770000
H       -2.88550000      -3.31590000      -2.30870000
H       -1.22970000      -3.87670000      -1.98390000
H       -3.75890000      -4.95030000      -0.58670000
H       -2.30150000      -5.89290000      -0.95330000
H       -0.98630000      -4.54520000       0.69770000
H       -2.53610000      -4.27390000       1.52390000
