21
Properties=species:S:1:pos:R:3 gdb_42134=T pbc="F F F"
C        0.00020000       1.57140000      -0.10700000
C        1.40850000       2.15410000       0.06910000
O        2.07520000       1.64050000       1.21390000
C        3.24940000       0.86350000       0.99700000
C        3.00980000      -0.63430000       1.06740000
C        2.40760000      -1.37670000       0.13650000
C        1.84000000      -0.85840000      -1.15820000
O        0.42440000      -0.67570000      -1.13770000
C       -0.13220000       0.04600000      -0.04740000
H       -0.63900000       1.96820000       0.69270000
H       -0.40970000       1.94440000      -1.05420000
H        2.01160000       1.99390000      -0.83290000
H        1.32340000       3.24210000       0.19780000
H        3.71250000       1.14040000       0.03990000
H        3.95380000       1.14780000       1.78600000
H        3.34120000      -1.12100000       1.98230000
H        2.25070000      -2.43600000       0.33040000
H        2.35070000       0.06630000      -1.45580000
H        2.00690000      -1.58750000      -1.95810000
H        0.27370000      -0.31080000       0.90620000
H       -1.19740000      -0.20660000      -0.07060000
