22
Properties=species:S:1:pos:R:3 gdb_113057=T pbc="F F F"
C       -0.05310000       1.64670000       0.02990000
C        0.06040000       0.12370000      -0.09930000
C       -1.30170000      -0.56400000      -0.03840000
C       -1.33760000      -2.11990000       0.07460000
N       -1.99960000      -1.95060000       1.37180000
C       -2.50540000      -2.89120000       2.34430000
C       -1.40850000      -3.72420000       3.01420000
C       -1.99760000      -0.57810000       1.34570000
O       -2.38820000       0.24420000       2.13770000
H        0.93530000       2.11600000       0.02720000
H       -0.62600000       2.06990000      -0.80270000
H       -0.56490000       1.91770000       0.95720000
H        0.55590000      -0.13960000      -1.04260000
H        0.69620000      -0.27060000       0.70440000
H       -1.96460000      -0.18120000      -0.82120000
H       -1.94880000      -2.63780000      -0.67360000
H       -0.35270000      -2.59730000       0.13280000
H       -3.04120000      -2.29300000       3.08810000
H       -3.24000000      -3.55390000       1.86600000
H       -1.84700000      -4.41410000       3.74170000
H       -0.85680000      -4.32000000       2.27990000
H       -0.69570000      -3.07950000       3.53650000
