16
Properties=species:S:1:pos:R:3 gdb_57829=T pbc="F F F"
C        0.00470000       1.40060000       0.12880000
N        0.06780000      -0.04590000       0.00620000
C        0.30280000      -0.79710000       1.22360000
C       -0.08670000      -0.60800000      -1.22640000
O       -0.26930000       0.01970000      -2.25720000
C       -0.02710000      -2.06530000      -1.29270000
C        0.00840000      -3.25730000      -1.49590000
C        0.01320000      -4.68040000      -1.73220000
O        1.01040000      -5.36320000      -1.74370000
H        0.95030000       1.79310000       0.52190000
H       -0.18300000       1.82330000      -0.85690000
H       -0.80090000       1.69060000       0.81390000
H       -0.50480000      -0.62590000       1.94630000
H        0.35510000      -1.86350000       1.00450000
H        1.24780000      -0.48940000       1.68760000
H       -0.99340000      -5.11060000      -1.90520000
