12
Properties=species:S:1:pos:R:3 gdb_4612=T pbc="F F F"
N        0.02150000       1.44660000       0.14390000
C       -0.01940000       0.04780000       0.03060000
C       -1.14570000      -0.70400000       0.00600000
O       -1.10970000      -2.04480000      -0.00340000
C        0.11250000      -2.75490000      -0.03180000
O        0.04920000      -3.94750000      -0.06870000
N        1.27690000      -2.00290000      -0.01090000
C        1.19960000      -0.71100000       0.02770000
H        0.71750000       1.87410000      -0.45470000
H       -0.87430000       1.89010000      -0.01350000
H       -2.15860000      -0.31460000       0.00910000
H        2.14500000      -0.16410000       0.05900000
