20
Properties=species:S:1:pos:R:3 gdb_112262=T pbc="F F F"
C       -0.11260000       1.66130000      -0.22400000
C        0.01180000       0.16920000       0.10250000
C       -1.33760000      -0.54200000       0.13040000
N       -1.99440000      -0.71530000      -1.18200000
C       -2.00780000      -2.08220000      -1.15190000
O       -2.32990000      -2.93270000      -1.94760000
C       -1.37730000      -2.10590000       0.25300000
C       -0.11130000      -2.96240000       0.30260000
O       -0.45010000      -4.31570000       0.07220000
H        0.86590000       2.14980000      -0.21180000
H       -0.54390000       1.81780000      -1.21900000
H       -0.75240000       2.17530000       0.50170000
H        0.66800000      -0.31520000      -0.62850000
H        0.48340000       0.04630000       1.08550000
H       -1.99630000      -0.04930000       0.85670000
H       -2.27180000      -0.05820000      -1.89660000
H       -2.07930000      -2.45760000       1.01340000
H        0.62550000      -2.60230000      -0.43210000
H        0.36110000      -2.91620000       1.28970000
H       -0.97450000      -4.34030000      -0.74070000
