20
Properties=species:S:1:pos:R:3 gdb_93517=T pbc="F F F"
C       -0.08290000       1.55880000      -0.03820000
C        0.02260000       0.02980000       0.04830000
N        0.65770000      -0.54140000      -1.13790000
C        1.96290000      -0.92150000      -1.30800000
O        2.40740000      -1.20390000      -2.40550000
C        2.80510000      -1.04440000      -0.04110000
C        2.27590000      -0.24920000       1.15710000
C        0.76950000      -0.46760000       1.29860000
O        0.20700000       0.21030000       2.40980000
H        0.90380000       2.02680000      -0.10220000
H       -0.64360000       1.84310000      -0.93430000
H       -0.60100000       1.95330000       0.83780000
H       -0.99610000      -0.37340000       0.10340000
H        0.15550000      -0.46120000      -2.01160000
H        2.83660000      -2.11460000       0.20070000
H        3.82610000      -0.76130000      -0.30590000
H        2.78650000      -0.56490000       2.07540000
H        2.47900000       0.82040000       1.03700000
H        0.58500000      -1.55200000       1.37940000
H        0.66880000      -0.08250000       3.20150000
