16
Properties=species:S:1:pos:R:3 gdb_33905=T pbc="F F F"
N        0.07370000      -1.16300000       0.00290000
C        0.04460000      -0.00500000      -0.00350000
C        0.00100000       1.41670000       0.02590000
C        0.26640000       2.28330000      -1.18230000
C        1.16940000       2.44710000      -0.00250000
C        0.52620000       3.23680000       1.15980000
C       -0.52940000       4.30840000       0.82280000
O       -1.57020000       3.29360000       0.72600000
C       -0.66270000       2.26170000       1.15410000
H        0.70460000       1.75790000      -2.02340000
H       -0.47700000       3.02680000      -1.44580000
H        2.22500000       2.21730000      -0.06910000
H        1.15860000       3.37710000       2.03350000
H       -0.73930000       5.00430000       1.64260000
H       -0.40530000       4.86950000      -0.10970000
H       -1.01330000       1.69640000       2.01900000
