15
Properties=species:S:1:pos:R:3 gdb_36062=T pbc="F F F"
N       -0.07830000      -1.12200000       0.34100000
C       -0.01480000       0.01810000       0.17020000
C        0.05000000       1.46200000      -0.04160000
C        1.49200000       1.99820000      -0.12170000
C        1.64320000       3.54220000      -0.00310000
C        2.46970000       3.21610000       1.25650000
O        2.20610000       1.79640000       1.10770000
C        2.20820000       1.41780000      -1.27060000
N        2.77150000       0.99990000      -2.18840000
H       -0.48600000       1.71830000      -0.96240000
H       -0.45140000       1.96560000       0.79090000
H        2.17590000       4.02300000      -0.82190000
H        0.69970000       4.05950000       0.17670000
H        3.53940000       3.43410000       1.18150000
H        2.08430000       3.59710000       2.20650000
