17
Properties=species:S:1:pos:R:3 gdb_121333=T pbc="F F F"
C        0.03670000       1.37110000       0.09750000
O        0.05230000      -0.03600000       0.01780000
C        0.55510000      -0.50540000      -1.20780000
C        0.50750000      -2.02020000      -1.19700000
O       -0.81260000      -2.51120000      -1.38290000
C       -0.68860000      -3.71660000      -2.08730000
O        0.49990000      -3.62350000      -2.87790000
C        1.28340000      -2.64420000      -2.35810000
O        2.36680000      -2.36070000      -2.77390000
H        1.04690000       1.79660000      -0.00830000
H       -0.60710000       1.81580000      -0.67710000
H       -0.35860000       1.63560000       1.08070000
H       -0.03890000      -0.12870000      -2.05610000
H        1.60230000      -0.19870000      -1.36100000
H        0.93450000      -2.38070000      -0.24690000
H       -0.58670000      -4.58150000      -1.41380000
H       -1.54850000      -3.84280000      -2.74920000
