14
Properties=species:S:1:pos:R:3 gdb_42710=T pbc="F F F"
O        0.01750000       0.04060000       0.11910000
C       -0.01170000       1.23280000       0.09230000
C       -1.09850000       2.30030000      -0.02040000
C       -1.05600000       3.20840000       1.27250000
O       -0.01610000       2.77640000       2.17680000
C        0.97260000       3.25740000       1.24060000
C       -0.07500000       4.12420000       0.50800000
N       -0.07250000       3.22270000      -0.71570000
C        1.01820000       2.35140000      -0.05380000
H       -2.05810000       2.10850000      -0.49960000
H       -1.98650000       3.46670000       1.77540000
H        1.90490000       3.56080000       1.71400000
H       -0.10270000       5.20810000       0.41710000
H        1.97040000       2.20580000      -0.56320000
