19
Properties=species:S:1:pos:R:3 gdb_108274=T pbc="F F F"
C        0.22890000       1.61980000       0.02670000
C        0.19190000       0.08750000       0.08010000
C        0.55510000      -0.53940000      -1.24330000
C       -0.41930000      -0.43050000      -2.45250000
C       -0.18710000      -1.93330000      -2.71540000
O       -0.62280000      -2.71080000      -3.51340000
C        0.76020000      -2.07220000      -1.51710000
C        2.20870000      -1.65340000      -1.85760000
O        1.91800000      -0.25540000      -1.65480000
H        1.21950000       1.96680000      -0.27940000
H       -0.50200000       2.01130000      -0.68880000
H        0.00220000       2.05010000       1.00620000
H        0.89180000      -0.27460000       0.84230000
H       -0.80660000      -0.26100000       0.37290000
H       -1.46060000      -0.23150000      -2.17450000
H       -0.12110000       0.25710000      -3.24720000
H        0.60340000      -2.88810000      -0.81220000
H        2.94780000      -2.01770000      -1.13430000
H        2.56230000      -1.87130000      -2.87180000
