16
Properties=species:S:1:pos:R:3 gdb_14903=T pbc="F F F"
C       -0.05660000      -1.21630000      -0.05530000
C       -0.01980000      -0.01510000      -0.03190000
C        0.01680000       1.44310000       0.02550000
C       -0.69620000       1.96340000       1.29520000
O       -0.52840000       3.35950000       1.42190000
C        0.81660000       3.73000000       1.65980000
C        1.79380000       3.00950000       0.77380000
C        1.43770000       1.98020000       0.01140000
H       -0.08860000      -2.27710000      -0.08680000
H       -0.52250000       1.83710000      -0.84900000
H       -1.77150000       1.77910000       1.23910000
H       -0.29690000       1.43210000       2.17280000
H        0.86810000       4.81170000       1.48710000
H        1.08250000       3.56450000       2.72040000
H        2.81900000       3.36980000       0.78500000
H        2.15180000       1.47860000      -0.63350000
