14
Properties=species:S:1:pos:R:3 gdb_75672=T pbc="F F F"
O        0.10160000       1.49170000       0.11080000
C       -0.01020000       0.10420000       0.03570000
C        0.16260000      -0.63630000       1.36670000
N        0.98720000      -0.70360000       2.30490000
N       -1.07440000      -1.39590000       1.25050000
C       -2.13590000      -0.36120000       1.25990000
C       -1.40350000      -0.56450000      -0.00990000
C       -1.98220000      -1.14040000      -1.18250000
N       -2.43130000      -1.55700000      -2.16390000
H        0.14660000       1.85650000      -0.77940000
H        0.63700000      -0.33420000      -0.73550000
H        1.76590000      -0.06030000       2.15030000
H       -3.13250000      -0.78250000       1.33060000
H       -1.97090000       0.55650000       1.81750000
