21
Properties=species:S:1:pos:R:3 gdb_64027=T pbc="F F F"
C        0.00510000       1.53670000      -0.11870000
C        0.00730000       0.00230000      -0.02880000
C       -1.43020000      -0.52490000      -0.04920000
C        0.88270000      -0.57360000      -1.18420000
C        2.25370000      -0.71150000      -0.57080000
C        2.21060000      -0.65290000       0.75680000
C        0.78400000      -0.48630000       1.25770000
C        0.64200000       0.34970000       2.44370000
C        0.52880000       1.01930000       3.43640000
H        1.02400000       1.93550000      -0.10970000
H       -0.47720000       1.85560000      -1.04890000
H       -0.53700000       1.98370000       0.71840000
H       -1.95020000      -0.21040000      -0.96070000
H       -1.45580000      -1.61940000      -0.01040000
H       -1.99870000      -0.14370000       0.80610000
H        0.50950000      -1.55410000      -1.51460000
H        0.86800000       0.07500000      -2.06790000
H        3.14950000      -0.87590000      -1.15940000
H        3.04840000      -0.75140000       1.43630000
H        0.39870000      -1.48450000       1.52270000
H        0.43210000       1.61380000       4.31090000
