17
Properties=species:S:1:pos:R:3 gdb_42438=T pbc="F F F"
O       -0.15980000       0.00390000      -0.12850000
C       -0.09920000       1.18230000       0.14670000
C        1.20760000       1.96550000       0.15820000
C        2.40680000       1.04170000      -0.10600000
C        3.66600000       1.77980000      -0.15410000
N        4.65360000       2.37860000      -0.19150000
N       -1.20290000       1.91570000       0.56520000
C       -1.78080000       3.05500000      -0.12800000
C       -2.51980000       1.75450000      -0.00160000
H        1.16040000       2.75390000      -0.60220000
H        1.31020000       2.48000000       1.11870000
H        2.46780000       0.27430000       0.67170000
H        2.26360000       0.50530000      -1.04850000
H       -2.05300000       3.90350000       0.49310000
H       -1.38180000       3.31060000      -1.10690000
H       -2.60230000       1.12500000      -0.88320000
H       -3.33450000       1.66650000       0.71080000
