15
Properties=species:S:1:pos:R:3 gdb_123957=T pbc="F F F"
C       -0.02720000       1.45170000       0.05520000
C        1.41340000       1.97630000       0.01940000
O        2.18010000       1.50000000       1.13920000
C        1.99840000       0.18590000       1.35680000
N        2.80380000      -0.51630000       2.11280000
O        2.26500000      -1.80600000       2.08200000
C        1.14830000      -1.81710000       1.32700000
C        0.91590000      -0.57860000       0.82130000
N       -0.10640000      -0.01390000       0.03760000
H       -0.51040000       1.81730000       0.96930000
H       -0.58450000       1.85110000      -0.79600000
H        1.91030000       1.67060000      -0.91150000
H        1.43880000       3.06570000       0.09010000
H        0.64540000      -2.76660000       1.23540000
H       -0.13350000      -0.38520000      -0.90390000
