16
Properties=species:S:1:pos:R:3 gdb_65635=T pbc="F F F"
O        0.06340000       1.46790000      -0.41340000
C        0.01230000       0.10060000      -0.08750000
C        0.15480000      -0.30320000       1.43070000
C       -1.28330000      -0.87120000       1.40250000
O       -2.26690000       0.08820000       1.82160000
C       -2.49510000       0.52050000       0.45560000
C       -1.44320000      -0.46150000      -0.08790000
C        0.91200000      -0.67430000      -0.95580000
N        1.63830000      -1.27230000      -1.62790000
H        0.97370000       1.77480000      -0.33190000
H        0.94350000      -1.03330000       1.62170000
H        0.26560000       0.55680000       2.09390000
H       -1.45780000      -1.86870000       1.80990000
H       -3.51720000       0.29110000       0.13420000
H       -2.28890000       1.58370000       0.30830000
H       -1.72080000      -1.12160000      -0.90600000
