15
Properties=species:S:1:pos:R:3 gdb_2839=T pbc="F F F"
O        0.25130000       0.74440000       0.84420000
C       -0.08760000       0.18440000      -0.41580000
C       -1.43720000      -0.46700000      -0.28320000
C       -1.88800000      -1.49740000      -1.27400000
C       -1.56990000      -1.92170000       0.15400000
C       -0.41460000      -2.72720000       0.42010000
C        0.54640000      -3.41570000       0.64500000
H        1.13310000       1.12180000       0.77580000
H       -0.13620000       0.96230000      -1.19570000
H        0.65120000      -0.56460000      -0.73700000
H       -2.20020000       0.19530000       0.11510000
H       -2.92650000      -1.50760000      -1.58480000
H       -1.18440000      -1.80930000      -2.03810000
H       -2.42600000      -2.13910000       0.78560000
H        1.39370000      -4.02150000       0.84950000
