20
Properties=species:S:1:pos:R:3 gdb_18107=T pbc="F F F"
C       -0.10610000       1.35420000       0.19510000
C        1.29810000       1.97440000       0.10270000
C        2.26910000       0.80860000       0.41000000
C        2.65080000       0.66640000       1.91490000
C        2.02930000      -0.63820000       2.34210000
C        1.41020000      -1.26000000       1.34170000
C        1.46960000      -0.49800000       0.04090000
C        0.08250000      -0.01930000      -0.46650000
H       -0.39380000       1.22700000       1.24540000
H       -0.87830000       1.96220000      -0.28530000
H        1.46570000       2.33710000      -0.91890000
H        1.44130000       2.82810000       0.77230000
H        3.17630000       0.90220000      -0.19090000
H        3.73900000       0.65830000       2.06120000
H        2.27740000       1.50810000       2.51410000
H        2.10060000      -1.00950000       3.35940000
H        0.89460000      -2.21210000       1.42230000
H        1.97080000      -1.09260000      -0.73190000
H       -0.71690000      -0.72860000      -0.23090000
H        0.10370000       0.09560000      -1.55710000
