24
Properties=species:S:1:pos:R:3 gdb_104780=T pbc="F F F"
C        0.80960000      -0.19140000      -1.29700000
C       -0.03530000      -0.03710000      -0.02690000
C        0.60100000      -0.63740000       1.23430000
C        1.93610000       0.02480000       1.62110000
C        1.85810000       1.52930000       1.90170000
C       -0.32500000      -0.81740000       2.47890000
N       -0.03080000      -2.29270000       2.57630000
C       -0.54720000      -2.87820000       1.32740000
C        0.74590000      -2.16950000       1.27430000
H        1.05600000      -1.24330000      -1.47900000
H        0.26660000       0.17740000      -2.17260000
H        1.75030000       0.36460000      -1.23680000
H       -0.25460000       1.02370000       0.14730000
H       -1.00860000      -0.51290000      -0.19190000
H        2.32110000      -0.48900000       2.51060000
H        2.67280000      -0.16010000       0.82910000
H        1.59770000       2.10170000       1.00620000
H        1.11040000       1.75720000       2.66940000
H        2.82170000       1.90380000       2.26050000
H        0.02530000      -0.30290000       3.37650000
H       -1.38910000      -0.59620000       2.33650000
H       -0.51930000      -3.96390000       1.32680000
H       -1.43790000      -2.45160000       0.87150000
H        1.68430000      -2.69930000       1.13140000
