17
Properties=species:S:1:pos:R:3 gdb_24050=T pbc="F F F"
C        0.00300000      -1.21420000      -0.17920000
C       -0.02720000      -0.01290000      -0.14790000
C       -0.02350000       1.44300000      -0.10030000
C        1.38780000       2.02550000       0.17610000
C        1.39900000       3.51300000       0.21670000
C        1.65690000       4.42610000       1.19260000
C        1.48830000       5.72120000       0.59980000
C        1.13760000       5.49740000      -0.69150000
O        1.07790000       4.16110000      -0.94330000
H        0.01370000      -2.27530000      -0.21160000
H       -0.39470000       1.84900000      -1.04820000
H       -0.71410000       1.79310000       0.67650000
H        1.75670000       1.64780000       1.13340000
H        2.07290000       1.65970000      -0.59760000
H        1.93690000       4.20460000       2.21080000
H        1.61410000       6.68160000       1.07440000
H        0.90780000       6.14050000      -1.52480000
