18
Properties=species:S:1:pos:R:3 gdb_19840=T pbc="F F F"
C       -0.05440000       1.51050000      -0.02110000
C        1.29100000       0.82710000       0.01770000
C        2.13540000       0.83650000       1.29070000
C        2.13840000      -0.52190000       2.01770000
C        0.73370000      -1.03400000       2.25870000
O       -0.27190000      -0.03960000       2.51040000
C       -0.31830000      -0.75390000       1.26760000
C        0.01880000       0.00450000       0.01830000
H       -0.38340000       2.00690000       0.88530000
H       -0.37430000       1.97980000      -0.94470000
H        1.85190000       0.82270000      -0.91160000
H        3.16500000       1.11580000       1.04770000
H        1.76020000       1.59490000       1.98350000
H        2.67900000      -1.27750000       1.43110000
H        2.66910000      -0.42950000       2.97280000
H        0.64420000      -1.92470000       2.88130000
H       -1.16000000      -1.44240000       1.18990000
H       -0.23570000      -0.52790000      -0.89340000
