17
Properties=species:S:1:pos:R:3 gdb_54341=T pbc="F F F"
C       -0.04120000       1.52630000      -0.04940000
C        0.07190000       0.01830000      -0.01210000
O        1.12480000      -0.56460000      -0.01330000
C       -1.26400000      -0.76970000       0.00210000
C       -1.85920000      -0.92730000      -1.44870000
N       -1.28290000      -2.28180000      -1.50830000
C       -1.07560000      -2.31520000      -0.04300000
C       -2.17830000      -0.24640000       0.99990000
N       -2.90270000       0.17500000       1.79760000
H        0.94010000       1.96130000      -0.23880000
H       -0.75380000       1.85180000      -0.81420000
H       -0.42370000       1.88710000       0.91150000
H       -2.95490000      -0.87250000      -1.43720000
H       -1.47540000      -0.23280000      -2.20420000
H       -1.90290000      -2.99460000      -1.87370000
H       -0.08360000      -2.65370000       0.26270000
H       -1.85150000      -2.83810000       0.52820000
