16
Properties=species:S:1:pos:R:3 gdb_19960=T pbc="F F F"
O        0.11070000       0.00210000      -0.37060000
C        0.04560000       1.19010000      -0.18250000
N       -1.00260000       2.05350000       0.00770000
C       -0.19120000       3.24560000       0.27410000
C        1.06490000       2.37100000      -0.02610000
N        2.09120000       2.34750000       0.98890000
C        1.90930000       1.47080000       2.14740000
C        2.90150000       1.13210000       1.09000000
H       -1.99870000       1.89510000       0.04400000
H       -0.37010000       4.07910000      -0.41100000
H       -0.23510000       3.59550000       1.30970000
H        1.53000000       2.61930000      -0.98490000
H        2.23520000       1.88910000       3.09510000
H        1.01870000       0.84910000       2.20070000
H        2.64930000       0.30020000       0.43820000
H        3.96220000       1.29630000       1.25750000
