25
Properties=species:S:1:pos:R:3 gdb_122667=T pbc="F F F"
C        0.05170000       1.60540000      -0.06980000
C        0.02620000       0.07470000      -0.08090000
C       -1.38520000      -0.50680000       0.05570000
C       -1.41310000      -2.04050000       0.04390000
C       -2.81730000      -2.64120000       0.12980000
C       -2.86790000      -4.17870000       0.09410000
C       -4.24110000      -4.47410000       0.70440000
O       -4.52300000      -3.40360000       1.60710000
C       -3.56510000      -2.36200000       1.44390000
H        1.07170000       1.98960000      -0.16990000
H       -0.54150000       2.01730000      -0.89390000
H       -0.36290000       2.00170000       0.86390000
H        0.47940000      -0.29350000      -1.01090000
H        0.65520000      -0.30860000       0.73350000
H       -1.83840000      -0.13490000       0.98470000
H       -2.01480000      -0.12590000      -0.76090000
H       -0.92600000      -2.40000000      -0.87250000
H       -0.80950000      -2.42360000       0.87920000
H       -3.42280000      -2.25420000      -0.70150000
H       -2.75170000      -4.59260000      -0.91090000
H       -2.06970000      -4.59150000       0.72280000
H       -5.02050000      -4.51120000      -0.07160000
H       -4.27200000      -5.42170000       1.25460000
H       -2.86060000      -2.36260000       2.29280000
H       -4.09160000      -1.40140000       1.44720000
