19
Properties=species:S:1:pos:R:3 gdb_52771=T pbc="F F F"
C        0.09060000       1.50750000      -0.06300000
C        0.02640000       0.05350000      -0.03170000
C       -0.04280000      -1.14980000      -0.00440000
C       -0.03860000      -2.60780000      -0.01750000
O        0.78250000      -3.08430000      -1.06750000
C        0.03580000      -3.36440000       1.36490000
C       -1.43220000      -2.91000000       1.60010000
C       -1.38490000      -3.38520000       0.11920000
C       -0.54930000      -4.60300000       0.62310000
H        0.75730000       1.89630000       0.71470000
H        0.46100000       1.86730000      -1.02930000
H       -0.89880000       1.95000000       0.09660000
H        1.54030000      -2.49480000      -1.12980000
H        0.86340000      -3.33620000       2.07540000
H       -2.01600000      -3.54000000       2.27400000
H       -1.60810000      -1.84870000       1.78130000
H       -2.19680000      -3.38450000      -0.60900000
H        0.09350000      -5.09800000      -0.10160000
H       -1.08950000      -5.31540000       1.25080000
