14
Properties=species:S:1:pos:R:3 gdb_128570=T pbc="F F F"
C       -0.00310000       1.41920000      -0.01340000
O        0.02390000      -0.01450000      -0.04200000
C        0.61200000      -0.62630000      -1.07040000
C        0.64330000      -1.99320000      -1.10730000
C        1.27830000      -2.63750000      -2.21700000
O        1.42170000      -3.81890000      -2.45740000
N        1.78740000      -1.66680000      -3.12950000
N        1.73290000      -0.34630000      -3.05090000
N        1.15730000       0.18750000      -2.04230000
H        1.00830000       1.83180000       0.00080000
H       -0.53860000       1.82010000      -0.87720000
H       -0.52820000       1.67100000       0.90820000
H        0.20190000      -2.59150000      -0.32200000
H        2.25780000      -2.01730000      -3.95540000
