18
Properties=species:S:1:pos:R:3 gdb_80368=T pbc="F F F"
C       -0.14420000       1.49720000       0.17950000
C        0.05990000       0.01400000      -0.03250000
C        0.62040000      -0.66600000      -1.21870000
N        1.34080000      -0.70890000       0.12550000
C        2.41990000       0.14890000      -0.47600000
C        1.77790000       0.07270000      -1.89990000
O        2.43820000      -0.87120000      -2.73370000
C        1.52580000       1.30880000      -2.63350000
C        1.38070000       2.32600000      -3.25950000
H        0.54850000       2.12290000      -0.38330000
H       -1.15650000       1.77140000      -0.13470000
H       -0.04940000       1.73990000       1.24360000
H       -0.72350000      -0.57830000       0.43940000
H        0.18230000      -1.54990000      -1.67120000
H        2.53600000       1.13410000      -0.01760000
H        3.36940000      -0.38810000      -0.46100000
H        3.14780000      -0.40850000      -3.19310000
H        1.23080000       3.22200000      -3.81020000
