21
Properties=species:S:1:pos:R:3 gdb_87728=T pbc="F F F"
C        0.03280000       1.56270000       0.30960000
C       -0.02030000       0.05950000       0.15860000
C        1.18520000      -0.70670000      -0.35550000
C        0.77430000      -0.82650000       1.09290000
O        1.59630000      -0.21000000       2.06410000
C        1.62000000      -1.00430000       3.26180000
C        1.17130000      -0.16210000       4.45650000
C        0.72630000      -2.17770000       2.94700000
C        0.24840000      -2.06080000       1.71190000
H        1.00210000       1.87960000       0.70180000
H       -0.13140000       2.06120000      -0.65200000
H       -0.73520000       1.91570000       1.00650000
H       -0.98900000      -0.33650000      -0.13840000
H        1.03830000      -1.55320000      -1.01860000
H        2.08950000      -0.13540000      -0.53980000
H        2.65820000      -1.33400000       3.43410000
H        0.13720000       0.16890000       4.32430000
H        1.23830000      -0.74290000       5.38280000
H        1.81080000       0.71940000       4.55730000
H        0.52650000      -2.97220000       3.65430000
H       -0.42310000      -2.73700000       1.19870000
