18
Properties=species:S:1:pos:R:3 gdb_110283=T pbc="F F F"
C        0.13580000       1.39210000      -0.08970000
O       -0.28490000       0.06170000       0.17820000
C        0.51690000      -0.58280000       1.12220000
C        0.13200000      -1.99890000       1.52370000
C        0.39920000      -3.01480000       0.49140000
C        0.26920000      -2.83590000      -1.00320000
N        1.57800000      -2.50380000       1.27350000
C        1.88220000      -1.19940000       0.71760000
O        2.88570000      -0.80550000       0.20850000
H        1.15420000       1.41970000      -0.49500000
H       -0.56000000       1.80180000      -0.82450000
H        0.10060000       2.00830000       0.82140000
H        0.66510000       0.04520000       2.01670000
H       -0.35890000      -2.24270000       2.45840000
H        0.18340000      -4.02830000       0.82380000
H        0.36590000      -1.79440000      -1.31060000
H        1.02630000      -3.43320000      -1.52080000
H       -0.71670000      -3.18890000      -1.32250000
