18
Properties=species:S:1:pos:R:3 gdb_93414=T pbc="F F F"
N        0.00680000       1.39040000       0.09060000
C       -0.05820000       0.03360000      -0.00490000
C       -1.21260000      -0.68370000       0.00410000
C       -1.25630000      -2.13630000      -0.02130000
O       -2.30060000      -2.76800000      -0.00320000
C        0.09330000      -2.86100000      -0.04860000
C        1.19750000      -2.02360000      -0.69930000
C        1.29600000      -0.65320000      -0.03220000
O        2.20240000       0.21920000      -0.70650000
H        0.86270000       1.81680000      -0.22910000
H       -0.83990000       1.92010000      -0.03960000
H       -2.17250000      -0.17700000       0.04880000
H        0.36310000      -3.09370000       0.99150000
H       -0.04730000      -3.81800000      -0.55670000
H        2.16620000      -2.53400000      -0.63290000
H        0.98300000      -1.86760000      -1.76240000
H        1.61860000      -0.77930000       1.01570000
H        3.09060000      -0.13300000      -0.59840000
