15
Properties=species:S:1:pos:R:3 gdb_35049=T pbc="F F F"
N        0.20090000      -1.18820000      -0.00110000
C        0.14180000      -0.03270000      -0.00150000
C        0.05530000       1.39810000       0.01750000
C        0.44750000       2.17890000       1.26610000
C        1.02430000       1.47730000       2.47590000
O        2.23550000       0.74500000       2.22420000
C        2.92860000       0.96680000       1.09070000
N        2.60700000       1.63570000       0.06240000
C        1.32820000       2.26150000       0.05640000
H       -0.77270000       1.79900000      -0.55790000
H       -0.18990000       3.02310000       1.50860000
H        1.25360000       2.22830000       3.24010000
H        0.32440000       0.75370000       2.90500000
H        3.88620000       0.45450000       1.13840000
H        1.28380000       3.14990000      -0.56390000
