17
Properties=species:S:1:pos:R:3 gdb_127121=T pbc="F F F"
C       -0.12120000       1.41980000      -0.05390000
N       -0.25350000      -0.03050000       0.00670000
C        0.26710000      -0.64750000       1.21840000
C       -0.06470000      -0.68620000      -1.18830000
N        0.12760000      -0.09990000      -2.33660000
N        0.15300000      -1.15400000      -3.24400000
C        0.01390000      -2.39290000      -2.67780000
O        0.00140000      -3.49630000      -3.17950000
N       -0.11670000      -2.05720000      -1.31670000
H        0.92490000       1.74410000      -0.15740000
H       -0.67770000       1.79540000      -0.91310000
H       -0.53580000       1.84650000       0.86300000
H       -0.04420000      -1.69230000       1.29190000
H        1.36590000      -0.60770000       1.28430000
H       -0.14890000      -0.12400000       2.08280000
H        0.30260000      -0.97150000      -4.21930000
H       -0.33150000      -2.74140000      -0.61440000
