19
Properties=species:S:1:pos:R:3 gdb_40790=T pbc="F F F"
C        0.24810000       1.50040000      -0.00460000
O        1.16510000       0.42880000      -0.23280000
C       -0.20630000       0.10520000       0.01870000
C       -0.50310000      -0.62710000       1.30450000
C       -2.00080000      -0.56840000       1.71420000
C       -2.28230000      -1.87870000       2.48870000
C       -1.27620000      -2.85890000       1.91930000
O       -1.21200000      -2.84490000       0.48480000
C       -0.21680000      -2.11970000       1.22610000
H        0.38150000       2.03630000       0.93500000
H        0.03590000       2.12840000      -0.86870000
H       -0.73950000      -0.27600000      -0.85370000
H        0.13270000      -0.20390000       2.09310000
H       -2.23100000       0.32440000       2.29970000
H       -2.61970000      -0.53620000       0.81380000
H       -2.08990000      -1.75960000       3.56220000
H       -3.31680000      -2.21750000       2.37690000
H       -1.11210000      -3.82910000       2.38150000
H        0.80210000      -2.48280000       1.12260000
