16
Properties=species:S:1:pos:R:3 gdb_6061=T pbc="F F F"
C       -0.00100000       1.49370000       0.03480000
C        0.03470000      -0.01150000      -0.01470000
N        1.28740000      -0.56190000      -0.09600000
N       -1.05720000      -0.67710000       0.05440000
H       -2.88270000      -0.88640000       0.21100000
C       -1.02640000      -2.12520000       0.01580000
C       -2.45550000      -2.68320000       0.11650000
O       -3.38760000      -1.73220000       0.22690000
O       -2.69900000      -3.85990000       0.09730000
H        0.60270000       1.86810000       0.86830000
H        0.40520000       1.92270000      -0.88820000
H       -1.02980000       1.82810000       0.15850000
H        2.06700000       0.02730000      -0.33370000
H        1.39120000      -1.53810000      -0.31630000
H       -0.59420000      -2.52350000      -0.91570000
H       -0.44860000      -2.56250000       0.84380000
