14
Properties=species:S:1:pos:R:3 gdb_43531=T pbc="F F F"
N       -0.10790000       1.17730000      -0.80690000
C       -0.02960000       0.08370000      -0.18990000
N        0.95490000      -0.65310000       0.48830000
C        0.13350000      -1.86470000       0.63740000
C        0.03460000      -2.39270000       1.99630000
N       -0.06300000      -2.82230000       3.06450000
C       -1.04950000      -0.99780000       0.10610000
C       -2.44760000      -0.92890000       0.52000000
O       -2.04210000      -1.45930000      -0.75670000
H        0.78570000       1.66770000      -0.85780000
H        1.95020000      -0.64220000       0.32010000
H        0.37730000      -2.67540000      -0.05860000
H       -2.82990000      -1.66060000       1.22850000
H       -2.95850000       0.02980000       0.48000000
