17
Properties=species:S:1:pos:R:3 gdb_74093=T pbc="F F F"
C       -0.07430000       1.45110000       0.10400000
C       -0.02990000      -0.03380000      -0.02340000
C        0.04170000      -0.77890000      -1.13930000
C        0.01160000      -2.22890000      -0.81100000
O       -0.00930000      -3.15640000      -1.58670000
C       -0.00430000      -2.32190000       0.70360000
C        1.20860000      -1.72560000       1.41800000
C       -0.04810000      -0.91210000       1.20620000
O       -0.85710000      -0.55010000       2.28070000
H        0.80150000       1.82420000       0.65120000
H       -0.10570000       1.94310000      -0.87020000
H       -0.95620000       1.75150000       0.68160000
H        0.11800000      -0.41590000      -2.15640000
H       -0.53870000      -3.12810000       1.18790000
H        1.38270000      -2.09850000       2.42300000
H        2.09930000      -1.48770000       0.84600000
H       -0.34990000       0.02520000       2.86310000
