18
Properties=species:S:1:pos:R:3 gdb_93808=T pbc="F F F"
C       -0.60040000       1.34540000       0.13430000
C       -0.04880000      -0.05100000      -0.03180000
O        0.84510000      -0.07060000      -1.09740000
C        1.36000000      -1.36780000      -1.38690000
C        1.36800000      -2.28950000      -0.14720000
N        2.38820000      -3.31140000      -0.29520000
C        1.46410000      -1.46130000       1.14140000
O        2.18590000      -1.73110000       2.06180000
O        0.63740000      -0.39070000       1.19460000
H        0.22510000       2.04860000       0.26580000
H       -1.17170000       1.62450000      -0.75390000
H       -1.25060000       1.38830000       1.01050000
H       -0.85690000      -0.78630000      -0.17890000
H        0.78770000      -1.83650000      -2.19730000
H        2.38570000      -1.22290000      -1.73860000
H        0.39440000      -2.79600000      -0.09410000
H        3.30010000      -2.88520000      -0.14530000
H        2.29290000      -3.98600000       0.45850000
