17
Properties=species:S:1:pos:R:3 gdb_47076=T pbc="F F F"
O        0.05020000      -0.04440000       0.08090000
C        0.02670000       1.16480000      -0.01220000
C       -1.24530000       2.04350000       0.09900000
N       -0.75700000       3.41850000       0.33220000
C        0.54530000       3.51560000      -0.33940000
C        1.64680000       4.39150000       0.30790000
N        2.83790000       3.50400000       0.23670000
C        2.40490000       2.20040000       0.16140000
C        1.10300000       2.12200000      -0.18490000
H       -1.81490000       1.92910000      -0.84000000
H       -1.88200000       1.69120000       0.91600000
H       -1.41650000       4.10360000      -0.01950000
H        0.44730000       3.78700000      -1.40690000
H        1.83320000       5.32640000      -0.22500000
H        1.38830000       4.61270000       1.35220000
H        3.62910000       3.71230000       0.82730000
H        3.08630000       1.39010000       0.38900000
