16
Properties=species:S:1:pos:R:3 gdb_126463=T pbc="F F F"
C       -0.46350000       1.42190000       0.22280000
C        0.28600000       0.11490000      -0.08290000
C        0.88500000      -0.51220000       1.13910000
N        2.19270000      -0.58440000       1.27720000
O        2.43400000      -1.19280000       2.49410000
C        1.25570000      -1.48100000       3.07600000
C        1.24030000      -2.14040000       4.38860000
O        2.22110000      -2.45570000       5.01540000
C        0.23140000      -1.07590000       2.27130000
H        0.21060000       2.16510000       0.65800000
H       -0.88850000       1.84100000      -0.69350000
H       -1.28390000       1.25770000       0.92860000
H       -0.39950000      -0.60160000      -0.55090000
H        1.09320000       0.29990000      -0.79700000
H        0.21120000      -2.32740000       4.76280000
H       -0.82660000      -1.16910000       2.45650000
