27
Properties=species:S:1:pos:R:3 gdb_122989=T pbc="F F F"
C       -0.04870000       1.63260000       0.09180000
C       -0.04390000       0.10760000       0.22870000
C       -1.40140000      -0.53170000      -0.08300000
C       -1.40450000      -2.05830000       0.05100000
C       -2.76810000      -2.68840000      -0.26650000
C       -2.82920000      -4.19840000      -0.08000000
C       -1.94390000      -5.01350000      -1.00540000
C       -3.04800000      -4.72200000       1.32090000
C       -4.16210000      -4.79720000       0.30200000
H        0.93300000       2.05910000       0.32100000
H       -0.31440000       1.93770000      -0.92660000
H       -0.77670000       2.08900000       0.77190000
H        0.71750000      -0.31780000      -0.43870000
H        0.26010000      -0.16840000       1.24720000
H       -2.16410000      -0.10570000       0.58430000
H       -1.70630000      -0.25450000      -1.10220000
H       -0.63660000      -2.47610000      -0.61280000
H       -1.10840000      -2.33710000       1.07140000
H       -3.52920000      -2.22200000       0.37290000
H       -3.04890000      -2.44090000      -1.30060000
H       -0.88210000      -4.79000000      -0.85560000
H       -2.07980000      -6.08620000      -0.83470000
H       -2.18090000      -4.81210000      -2.05720000
H       -2.55570000      -5.64490000       1.60930000
H       -3.14590000      -4.00410000       2.12910000
H       -5.01050000      -4.13140000       0.42380000
H       -4.42030000      -5.77140000      -0.10060000
