21
Properties=species:S:1:pos:R:3 gdb_83025=T pbc="F F F"
C        0.65080000       1.21070000       0.17090000
C        0.03340000      -0.15760000       0.05500000
C        0.09820000      -0.87280000      -1.07410000
C       -0.52880000      -2.22470000      -1.29030000
C       -1.01030000      -2.90980000      -0.02370000
C       -0.03670000      -3.17550000       1.09880000
O        1.32570000      -2.87730000       1.00400000
C       -1.09390000      -2.11220000       1.27380000
C       -0.69730000      -0.64710000       1.28480000
H        1.39470000       1.24370000       0.97700000
H        1.13880000       1.51620000      -0.75830000
H       -0.10810000       1.96370000       0.42030000
H        0.61560000      -0.44850000      -1.93280000
H       -1.37710000      -2.10850000      -1.98020000
H        0.18340000      -2.87540000      -1.81770000
H       -1.77480000      -3.66380000      -0.18750000
H       -0.15940000      -4.09740000       1.65830000
H        1.42620000      -2.08570000       0.46070000
H       -1.91180000      -2.35380000       1.94680000
H       -0.08300000      -0.43560000       2.17250000
H       -1.60010000      -0.03150000       1.40840000
