19
Properties=species:S:1:pos:R:3 gdb_101134=T pbc="F F F"
O        0.03560000       1.31830000      -0.41380000
C        0.03850000      -0.08490000      -0.15440000
C       -1.39250000      -0.57550000       0.09870000
O       -2.24000000      -0.14430000      -0.94850000
C       -1.45990000      -2.07200000       0.17650000
C       -1.54270000      -3.02890000      -0.96970000
C       -2.59230000      -3.06920000       0.12820000
C       -1.96370000      -3.63920000       1.39460000
O       -0.85630000      -2.69550000       1.31890000
H       -0.12250000       1.77440000       0.41990000
H        0.42660000      -0.55470000      -1.06320000
H        0.69460000      -0.34960000       0.68390000
H       -1.73280000      -0.16570000       1.06790000
H       -1.89680000       0.72080000      -1.21130000
H       -1.89220000      -2.59130000      -1.89810000
H       -0.80880000      -3.82520000      -1.06290000
H       -3.64710000      -2.92250000      -0.05630000
H       -2.55350000      -3.46160000       2.30080000
H       -1.62170000      -4.68090000       1.37310000
