16
Properties=species:S:1:pos:R:3 gdb_21309=T pbc="F F F"
C       -0.15200000       1.41280000      -0.36080000
O       -0.21530000       0.01480000      -0.50420000
C       -1.02820000      -0.59920000       0.47300000
C       -1.05060000      -2.07410000       0.22770000
C       -0.48380000      -2.74850000      -0.83350000
N       -0.76080000      -4.06210000      -0.64280000
N       -1.47300000      -4.29940000       0.47350000
C       -1.65010000      -3.09260000       1.00460000
H        0.49610000       1.79400000      -1.15350000
H       -1.14520000       1.87960000      -0.45780000
H        0.26920000       1.70510000       0.61430000
H       -0.64330000      -0.37840000       1.48450000
H       -2.05000000      -0.18030000       0.43330000
H        0.08100000      -2.38990000      -1.67740000
H       -0.49380000      -4.83790000      -1.22400000
H       -2.20230000      -2.99330000       1.92830000
