15
Properties=species:S:1:pos:R:3 gdb_2244=T pbc="F F F"
C       -0.00270000       1.50180000      -0.00850000
C       -0.03860000       0.00270000       0.07840000
C       -1.27150000      -0.78110000      -0.33940000
O       -1.09460000      -2.10050000       0.16040000
C       -0.19370000      -2.07860000       1.26290000
C        0.63730000      -0.82990000       1.08000000
O        1.16810000      -0.70900000      -0.24540000
H        0.94120000       1.88460000       0.38640000
H       -0.09300000       1.83170000      -1.04920000
H       -0.82800000       1.94590000       0.55750000
H       -2.17100000      -0.30320000       0.08340000
H       -1.39190000      -0.84770000      -1.42620000
H       -0.72630000      -2.03070000       2.22760000
H        0.39150000      -3.00360000       1.23380000
H        1.24510000      -0.43160000       1.88840000
