18
Properties=species:S:1:pos:R:3 gdb_104623=T pbc="F F F"
C        0.54880000       1.50840000       0.15550000
C        0.04010000       0.09030000       0.02380000
C        0.40060000      -0.71620000      -1.24440000
C        1.06470000      -1.71370000      -0.26060000
C        2.57850000      -1.91910000      -0.37030000
O        3.09510000      -2.46110000       0.81860000
O        0.77860000      -0.84910000       0.86540000
C        0.35860000      -2.99840000      -0.13150000
N       -0.21480000      -3.99930000      -0.06520000
H        1.60870000       1.57330000      -0.10870000
H       -0.01730000       2.17500000      -0.50400000
H        0.42650000       1.86310000       1.18340000
H       -1.02680000       0.04000000       0.27230000
H       -0.43280000      -1.10560000      -1.82680000
H        1.11750000      -0.22480000      -1.90590000
H        2.81200000      -2.61720000      -1.18050000
H        3.02850000      -0.94340000      -0.61210000
H        2.80720000      -1.88140000       1.53510000
