15
Properties=species:S:1:pos:R:3 gdb_17084=T pbc="F F F"
N        0.05150000      -1.10580000      -0.03770000
C       -0.00320000       0.05240000      -0.01650000
C       -0.02910000       1.46150000       0.00950000
C       -1.06730000       2.31590000       0.01790000
C       -0.39630000       3.68710000       0.04820000
C        0.73970000       3.46660000      -1.01500000
C        1.19670000       2.40020000       0.03610000
C        0.72400000       3.42700000       1.11910000
H       -2.12610000       2.10290000       0.00620000
H       -1.02930000       4.57240000       0.05990000
H        0.44570000       3.11030000      -2.00450000
H        1.42450000       4.31580000      -1.09110000
H        2.18610000       1.94730000       0.03500000
H        1.40720000       4.27270000       1.23680000
H        0.41550000       3.03430000       2.09030000
