19
Properties=species:S:1:pos:R:3 gdb_59102=T pbc="F F F"
C        0.10650000       1.51600000      -0.14810000
C        0.06570000       0.02890000       0.21560000
O        0.66260000      -0.20520000       1.48240000
C       -1.37130000      -0.52830000       0.15210000
C       -1.64020000      -2.06230000      -0.00870000
O       -0.46020000      -2.79210000       0.22350000
C       -2.63660000      -2.02320000       1.19820000
C       -2.13740000      -0.59990000       1.48050000
O       -2.19440000       0.13340000       2.42840000
H        1.12770000       1.89310000      -0.04880000
H       -0.23150000       1.68690000      -1.17590000
H       -0.54100000       2.09370000       0.52190000
H        0.67840000      -0.54220000      -0.48970000
H        0.13960000       0.27360000       2.13760000
H       -1.96300000       0.02550000      -0.58600000
H       -2.09990000      -2.33720000      -0.96600000
H       -0.67830000      -3.72940000       0.22990000
H       -3.69360000      -2.05420000       0.91510000
H       -2.45400000      -2.74840000       1.99590000
