17
Properties=species:S:1:pos:R:3 gdb_111487=T pbc="F F F"
O        0.20590000       1.32830000       0.07300000
C        0.09700000      -0.07490000       0.01610000
C       -1.37420000      -0.53260000      -0.00520000
C       -1.60720000      -2.02230000      -0.11930000
O       -1.19570000      -2.74300000       1.05350000
C       -2.59170000      -2.46730000       0.88380000
C       -3.05350000      -1.29170000       1.71220000
C       -2.10040000      -0.16210000       1.29950000
O       -1.92320000       0.86030000       1.91770000
H       -0.30660000       1.60820000       0.84450000
H        0.59380000      -0.39830000      -0.90500000
H        0.60730000      -0.56860000       0.85700000
H       -1.87880000      -0.00910000      -0.83040000
H       -1.45820000      -2.54090000      -1.06240000
H       -3.22760000      -3.33470000       0.73270000
H       -4.08390000      -1.00290000       1.46710000
H       -3.00480000      -1.46150000       2.79090000
