14
Properties=species:S:1:pos:R:3 gdb_20630=T pbc="F F F"
C        0.00970000       1.51300000      -0.02180000
C       -0.07680000       0.01870000       0.01000000
C       -1.19500000      -0.71830000      -0.13160000
C       -1.10800000      -2.16440000      -0.07620000
N       -2.12600000      -2.92750000      -0.20420000
N        0.19890000      -2.72940000       0.13390000
N        1.22410000      -2.01390000       0.26250000
N        1.10720000      -0.66320000       0.20340000
H        0.66740000       1.85340000      -0.83010000
H       -0.97980000       1.94460000      -0.17920000
H        0.41180000       1.90540000       0.91950000
H       -2.16110000      -0.25570000      -0.28630000
H       -1.81770000      -3.89990000      -0.12980000
H        1.98710000      -0.18710000       0.31810000
