24
Properties=species:S:1:pos:R:3 gdb_113793=T pbc="F F F"
C       -0.22410000       1.64450000      -0.79780000
C        0.05400000       0.27300000      -0.18590000
N       -1.20190000      -0.42950000       0.05480000
C       -1.72540000      -1.28180000      -1.00550000
C       -1.21670000      -1.88450000       0.26170000
C        0.01600000      -2.76240000       0.33480000
C        0.72250000      -3.14550000      -0.95490000
C        0.86550000      -2.62430000       1.58510000
C       -0.01750000      -3.83030000       1.41060000
H        0.70710000       2.20160000      -0.94110000
H       -0.71230000       1.54490000      -1.77300000
H       -0.88480000       2.22680000      -0.14940000
H        0.74570000      -0.28480000      -0.83710000
H        0.55890000       0.39250000       0.77970000
H       -2.79330000      -1.21330000      -1.20070000
H       -1.11560000      -1.41200000      -1.89850000
H       -1.96690000      -2.16200000       1.00140000
H        1.13600000      -2.28110000      -1.48380000
H        1.55550000      -3.82420000      -0.74420000
H        0.03980000      -3.65930000      -1.64040000
H        1.93870000      -2.75150000       1.48760000
H        0.57050000      -1.88210000       2.31880000
H       -0.90570000      -3.90550000       2.02930000
H        0.45040000      -4.78350000       1.18910000
