15
Properties=species:S:1:pos:R:3 gdb_43712=T pbc="F F F"
O        0.15870000       0.12000000      -0.69070000
C       -0.02500000       1.15030000      -0.13160000
C       -1.20290000       2.04630000       0.25670000
C       -0.09990000       2.92480000       0.85560000
O        0.91550000       1.98580000       0.42790000
C        0.15200000       4.43570000       0.68730000
C       -0.93070000       4.69240000       1.76550000
C       -0.00000000       3.55570000       2.25800000
O        1.15830000       4.34120000       1.77100000
H       -1.75150000       2.46210000      -0.59030000
H       -1.90150000       1.59240000       0.96190000
H        0.41140000       5.00610000      -0.20330000
H       -0.80010000       5.63020000       2.30350000
H       -1.97520000       4.46540000       1.53720000
H        0.07860000       3.08010000       3.23440000
