18
Properties=species:S:1:pos:R:3 gdb_62262=T pbc="F F F"
C       -0.36790000       1.28090000      -0.01760000
N       -0.11890000      -0.15080000      -0.04990000
C        0.07810000      -0.85810000       1.19740000
C       -1.21630000      -1.13170000       1.96670000
O       -2.00970000      -2.08950000       1.26770000
C       -3.14770000      -1.67220000       0.67190000
O       -3.85190000      -2.40420000       0.04890000
C        0.01830000      -0.78660000      -1.25690000
O       -0.09390000      -0.25940000      -2.34090000
H        0.44510000       1.80450000       0.50020000
H       -0.42600000       1.62740000      -1.04940000
H       -1.30950000       1.51790000       0.49130000
H        0.55900000      -1.81770000       0.98340000
H        0.75700000      -0.28720000       1.84560000
H       -0.98180000      -1.56040000       2.94580000
H       -1.78630000      -0.20810000       2.12720000
H       -3.34750000      -0.59560000       0.83850000
H        0.24810000      -1.86120000      -1.12780000
