17
Properties=species:S:1:pos:R:3 gdb_29282=T pbc="F F F"
N       -0.09200000       1.47310000      -0.05180000
C        0.01490000       0.06880000      -0.00160000
C       -0.99850000      -0.83880000       0.23010000
N       -0.42640000      -2.09260000       0.31210000
C        0.91950000      -2.00230000       0.09670000
C        1.23060000      -0.67070000      -0.09210000
C        1.76450000      -3.20690000       0.12890000
C        1.72490000      -4.17880000       1.23980000
O        1.06730000      -4.45860000       0.00120000
H        0.54990000       1.87780000      -0.72210000
H       -1.02940000       1.77850000      -0.28180000
H       -2.06080000      -0.69720000       0.34550000
H       -0.91490000      -2.97180000       0.32310000
H        2.21890000      -0.26420000      -0.24810000
H        2.68820000      -3.14210000      -0.44510000
H        2.59730000      -4.79560000       1.45290000
H        1.06740000      -3.98430000       2.08520000
