15
Properties=species:S:1:pos:R:3 gdb_112149=T pbc="F F F"
O       -0.34140000       1.47490000       0.24240000
C       -0.09870000       0.09580000       0.10970000
C       -1.39450000      -0.69250000      -0.05880000
O       -2.22920000      -0.54930000       1.07910000
C       -3.37100000       0.12190000       0.73870000
N       -4.29890000       0.46580000       1.51300000
C       -3.31370000       0.34910000      -0.73640000
N       -4.18440000       0.90790000      -1.44980000
O       -2.12410000      -0.17860000      -1.17130000
H       -0.66740000       1.79990000      -0.60370000
H        0.56200000      -0.14160000      -0.73760000
H        0.39200000      -0.23910000       1.02860000
H       -1.19820000      -1.75900000      -0.22370000
H       -4.09340000       0.19330000       2.47530000
H       -3.90100000       0.92740000      -2.43070000
