23
Properties=species:S:1:pos:R:3 gdb_118073=T pbc="F F F"
C       -0.18360000       1.55720000       0.08000000
C       -0.06770000       0.04660000       0.19630000
O       -1.34870000      -0.51620000      -0.02580000
C       -1.41730000      -1.94170000      -0.04200000
C       -1.37180000      -2.53290000       1.36800000
C       -2.73710000      -2.26350000      -0.75890000
O       -3.81340000      -1.53790000      -0.16330000
C       -2.69820000      -1.95910000      -2.26060000
O       -3.97460000      -2.14300000      -2.83540000
H        0.79160000       2.02610000       0.24140000
H       -0.54590000       1.84050000      -0.91220000
H       -0.88210000       1.94780000       0.82570000
H        0.64430000      -0.34620000      -0.54730000
H        0.31330000      -0.23000000       1.19050000
H       -0.58140000      -2.33860000      -0.64110000
H       -1.38300000      -3.62630000       1.31920000
H       -0.46650000      -2.23390000       1.90310000
H       -2.24470000      -2.20290000       1.93730000
H       -2.97960000      -3.32320000      -0.62150000
H       -3.47110000      -0.64420000      -0.02260000
H       -2.32840000      -0.93130000      -2.40720000
H       -2.00590000      -2.64100000      -2.76850000
H       -4.59090000      -1.76360000      -2.19460000
