16
Properties=species:S:1:pos:R:3 gdb_102342=T pbc="F F F"
C        0.06070000       1.48010000       0.06040000
N       -0.03160000       0.01730000       0.02660000
C       -1.37860000      -0.53370000      -0.01750000
C       -1.27710000      -2.09860000      -0.04500000
O       -2.52550000      -2.72510000      -0.05620000
C       -2.11050000      -0.16940000       1.21380000
N       -2.68820000       0.04160000       2.19120000
C       -2.16260000      -0.07320000      -1.19530000
N       -2.67440000       0.30890000      -2.15810000
H        1.11760000       1.75500000       0.06390000
H       -0.43250000       1.97560000      -0.78830000
H       -0.38650000       1.84930000       0.98760000
H        0.48290000      -0.34570000      -0.76980000
H       -0.76960000      -2.37950000      -0.97300000
H       -0.64530000      -2.38400000       0.80490000
H       -2.92850000      -2.63400000       0.81520000
