18
Properties=species:S:1:pos:R:3 gdb_55238=T pbc="F F F"
N        0.07290000       1.11280000      -0.71600000
C       -0.04840000       0.20470000       0.29230000
O        0.83270000       0.01300000       1.10990000
C       -1.35320000      -0.58700000       0.31670000
C       -1.10580000      -2.08890000      -0.00550000
C       -2.31240000      -2.81810000       0.59870000
C       -2.75660000      -1.94460000       1.77970000
O       -3.57970000      -2.24090000       2.60540000
C       -1.98150000      -0.62730000       1.71890000
H        0.91560000       1.66200000      -0.76710000
H       -0.67060000       1.30350000      -1.36350000
H       -2.07040000      -0.17490000      -0.40370000
H       -0.97950000      -2.26770000      -1.07590000
H       -0.18190000      -2.39360000       0.49610000
H       -3.15210000      -2.86310000      -0.10720000
H       -2.11540000      -3.84240000       0.92380000
H       -1.17320000      -0.67350000       2.46080000
H       -2.61810000       0.22310000       1.97200000
