17
Properties=species:S:1:pos:R:3 gdb_32648=T pbc="F F F"
C       -0.01630000       1.54700000      -0.03040000
C       -0.03290000       0.01710000      -0.02180000
N       -1.38190000      -0.54010000       0.00540000
C       -2.07200000      -0.90550000       1.12170000
C       -3.33990000      -1.31750000       0.75580000
C       -3.42950000      -1.19430000      -0.64520000
C       -2.20860000      -0.70860000      -1.09290000
C       -1.77480000      -0.41020000      -2.40130000
N       -1.40120000      -0.15650000      -3.47020000
H        1.01690000       1.90680000      -0.03000000
H       -0.51210000       1.93590000      -0.92350000
H       -0.52300000       1.94870000       0.85180000
H        0.47510000      -0.37400000      -0.90770000
H        0.49340000      -0.37170000       0.85440000
H       -1.60450000      -0.84820000       2.09250000
H       -4.10630000      -1.67520000       1.42510000
H       -4.27070000      -1.43460000      -1.27590000
