17
Properties=species:S:1:pos:R:3 gdb_7992=T pbc="F F F"
C       -0.15980000       1.54960000       0.05200000
C        0.15180000       0.06700000      -0.01250000
C        0.98740000      -0.38080000      -1.22880000
N        1.84810000      -1.37170000      -0.62380000
C        2.89440000      -2.05270000      -1.34920000
C        1.91240000      -1.20920000       0.74180000
O        2.66350000      -1.74530000       1.51160000
O        0.95270000      -0.31370000       1.12260000
H        0.76260000       2.13760000       0.03660000
H       -0.77650000       1.84330000      -0.80380000
H       -0.70690000       1.78730000       0.96770000
H       -0.77580000      -0.51780000       0.03410000
H        0.36470000      -0.80420000      -2.02400000
H        1.56550000       0.45400000      -1.65830000
H        3.57290000      -1.34350000      -1.84480000
H        3.46460000      -2.64450000      -0.63180000
H        2.47100000      -2.71590000      -2.11130000
