19
Properties=species:S:1:pos:R:3 gdb_72167=T pbc="F F F"
C       -0.01440000       1.53440000       0.02310000
C       -0.02190000       0.02680000      -0.04460000
C        0.25850000      -0.80660000      -1.32300000
C       -0.34120000      -1.93010000      -0.45530000
O        0.66640000      -2.09390000       0.56590000
C        0.70230000      -0.75660000       1.08630000
O       -0.13950000      -0.67300000       2.20820000
C       -1.45380000      -0.99080000       1.70300000
C       -1.29350000      -0.86870000       0.18810000
H        0.98080000       1.93300000      -0.20520000
H       -0.71830000       1.96850000      -0.69430000
H       -0.29100000       1.87920000       1.02440000
H       -0.38120000      -0.50360000      -2.15610000
H        1.29210000      -0.93940000      -1.65170000
H       -0.66170000      -2.90150000      -0.82840000
H        1.71330000      -0.47720000       1.38190000
H       -1.74070000      -2.00130000       2.01780000
H       -2.17250000      -0.27620000       2.11760000
H       -2.18150000      -0.61470000      -0.38950000
