17
Properties=species:S:1:pos:R:3 gdb_31408=T pbc="F F F"
C        0.01910000       1.47320000      -0.07540000
N       -0.09140000       0.03980000       0.10170000
C        0.56970000      -0.67850000       1.06370000
C        0.63990000      -2.04440000       1.03230000
C        1.29350000      -2.81090000       2.05370000
N        1.38310000      -4.08010000       2.07570000
O        1.87840000      -2.06410000       3.10400000
C        1.80710000      -0.72570000       3.11610000
C        1.19680000       0.01030000       2.17360000
H        1.04850000       1.80880000      -0.26640000
H       -0.59560000       1.76340000      -0.92970000
H       -0.36170000       2.01300000       0.79840000
H       -0.38590000      -0.48660000      -0.70420000
H        0.19540000      -2.61820000       0.22820000
H        1.89640000      -4.38790000       2.90060000
H        2.30470000      -0.30600000       3.98300000
H        1.18730000       1.08650000       2.26300000
