16
Properties=species:S:1:pos:R:3 gdb_42223=T pbc="F F F"
N        0.02000000       1.24900000      -0.32910000
C        0.10450000       0.04260000       0.07490000
C       -1.09810000      -0.77650000       0.03650000
N       -2.02800000      -1.46140000      -0.00370000
N        1.18610000      -0.60900000       0.66250000
C        2.51890000      -0.56810000       0.05580000
C        3.50010000      -1.09540000       1.11110000
C        2.67570000      -2.43400000       1.15860000
C        1.73480000      -1.84960000       0.09870000
H        0.92580000       1.71680000      -0.25310000
H        2.70920000       0.09520000      -0.77970000
H        4.50440000      -1.24230000       0.70980000
H        3.55490000      -0.51250000       2.03230000
H        3.24830000      -3.28640000       0.78900000
H        2.20340000      -2.69260000       2.10800000
H        1.20060000      -2.35850000      -0.69440000
