27
Properties=species:S:1:pos:R:3 gdb_122159=T pbc="F F F"
C        0.10480000       1.53890000      -0.30850000
C        0.01260000       0.06100000       0.08090000
C       -1.40300000      -0.51120000      -0.05340000
C       -1.49450000      -1.99100000       0.34920000
C       -2.87180000      -2.61240000       0.15530000
C       -3.97060000      -2.00250000       1.01020000
C       -3.25910000      -3.08400000      -1.23170000
C       -3.00190000      -4.09640000      -0.13800000
C       -1.83890000      -5.06260000      -0.21070000
H        1.12600000       1.91870000      -0.20340000
H       -0.20270000       1.69400000      -1.34880000
H       -0.54610000       2.15530000       0.32180000
H        0.70150000      -0.52580000      -0.54160000
H        0.35840000      -0.06740000       1.11540000
H       -2.08790000       0.08810000       0.55980000
H       -1.74600000      -0.39780000      -1.09090000
H       -0.75150000      -2.54980000      -0.23060000
H       -1.19600000      -2.09470000       1.40270000
H       -4.13130000      -0.94480000       0.77490000
H       -4.92320000      -2.51900000       0.85550000
H       -3.72470000      -2.07130000       2.07720000
H       -4.27660000      -2.92510000      -1.57480000
H       -2.51250000      -3.00270000      -2.01670000
H       -3.89780000      -4.54590000       0.28570000
H       -0.96970000      -4.63160000      -0.71480000
H       -1.51880000      -5.38420000       0.78710000
H       -2.12350000      -5.96030000      -0.77120000
