16
Properties=species:S:1:pos:R:3 gdb_50877=T pbc="F F F"
N       -0.03880000       1.56330000      -0.10240000
C       -0.01290000       0.30390000      -0.15080000
C       -1.21850000      -0.56790000       0.04850000
C       -2.52100000       0.22600000       0.23880000
C       -3.66970000      -0.65140000       0.42550000
C       -4.60070000      -1.39570000       0.57830000
O        1.10530000      -0.48130000      -0.43300000
C        2.31100000      -0.14580000       0.11310000
O        3.31950000      -0.69110000      -0.20360000
H        0.85890000       1.99740000      -0.31330000
H       -1.29730000      -1.24000000      -0.81370000
H       -1.03580000      -1.22160000       0.90980000
H       -2.41390000       0.89900000       1.09620000
H       -2.67760000       0.87710000      -0.62820000
H       -5.43390000      -2.03970000       0.71410000
H        2.22280000       0.64440000       0.87790000
