18
Properties=species:S:1:pos:R:3 gdb_104567=T pbc="F F F"
C       -0.31650000       1.58880000       0.02870000
C        0.04340000       0.09990000       0.07150000
C        0.73720000      -0.40050000      -1.19390000
C        0.71690000      -1.95720000      -1.42530000
C       -0.14750000      -1.65340000      -2.67200000
O       -0.69580000      -2.29630000      -3.52180000
N       -0.04210000      -0.29990000      -2.44180000
C        2.14640000       0.14820000      -1.37220000
O        2.77520000       0.72530000      -0.52440000
H        0.57760000       2.20910000      -0.07060000
H       -0.98970000       1.81200000      -0.80660000
H       -0.83050000       1.88520000       0.94720000
H        0.71070000      -0.09400000       0.91760000
H       -0.86270000      -0.49690000       0.22490000
H        1.67910000      -2.41920000      -1.65810000
H        0.21900000      -2.52020000      -0.63490000
H       -0.46320000       0.49140000      -2.90710000
H        2.56790000      -0.05040000      -2.38490000
