15
Properties=species:S:1:pos:R:3 gdb_16097=T pbc="F F F"
C        0.02760000      -1.21590000      -0.08920000
C        0.03760000      -0.01620000       0.00450000
C        0.01870000       1.41020000       0.10740000
N        0.35420000       2.24120000      -1.10180000
C        1.25490000       2.26560000       0.05990000
C        1.03680000       3.45290000       0.99060000
C       -0.38330000       3.25210000       1.48150000
C       -0.92930000       2.12640000       1.02120000
H        0.02610000      -2.27490000      -0.16580000
H        0.75530000       1.61950000      -1.80340000
H        2.23660000       1.81410000      -0.03010000
H        1.75750000       3.45200000       1.81830000
H        1.15670000       4.40460000       0.45930000
H       -0.88640000       3.97700000       2.11110000
H       -1.92640000       1.75910000       1.22660000
