21
Properties=species:S:1:pos:R:3 gdb_88276=T pbc="F F F"
C       -0.32970000       1.47180000       0.10460000
C       -0.05390000      -0.01430000       0.11040000
C        1.27160000      -0.57280000      -0.27960000
C        0.83780000      -0.68610000       1.17220000
C        1.54160000       0.13750000       2.19440000
O        2.17280000       1.14190000       1.90490000
C        1.43550000      -0.32090000       3.61120000
C        2.64200000      -0.08460000       4.51050000
C        1.42480000       0.75260000       4.69140000
H        0.54750000       2.03620000       0.42490000
H       -0.60260000       1.79780000      -0.90520000
H       -1.16210000       1.72250000       0.77130000
H       -0.91300000      -0.62800000      -0.15020000
H        1.31860000      -1.48730000      -0.86030000
H        2.07430000       0.13580000      -0.45480000
H        0.49420000      -1.65550000       1.51630000
H        0.84810000      -1.21360000       3.79210000
H        2.86960000      -0.85060000       5.24280000
H        3.49640000       0.37590000       4.02810000
H        1.46440000       1.77390000       4.33120000
H        0.78900000       0.57950000       5.55200000
