27
Properties=species:S:1:pos:R:3 gdb_95797=T pbc="F F F"
C       -0.07900000       1.55660000      -0.05920000
C        0.06710000       0.03120000      -0.01070000
C        0.67190000      -0.52290000      -1.31220000
C        0.72980000      -2.05680000      -1.30840000
C        1.44520000      -2.59330000      -0.06070000
C        0.83710000      -2.03030000       1.23540000
C        1.48980000      -2.64370000       2.47970000
C        0.83570000      -0.47760000       1.23870000
C        2.23760000       0.13830000       1.39140000
H        0.87710000       2.05260000      -0.25640000
H       -0.76880000       1.85380000      -0.85660000
H       -0.47140000       1.95170000       0.88470000
H       -0.94780000      -0.38740000       0.07150000
H        0.08260000      -0.17110000      -2.16780000
H        1.68200000      -0.11450000      -1.45240000
H       -0.29500000      -2.45340000      -1.33110000
H        1.22190000      -2.42230000      -2.21710000
H        1.39650000      -3.68890000      -0.04140000
H        2.51280000      -2.33890000      -0.10780000
H       -0.22210000      -2.33030000       1.24590000
H        2.57410000      -2.49060000       2.48990000
H        1.08310000      -2.21020000       3.40040000
H        1.31480000      -3.72430000       2.51520000
H        0.25670000      -0.16180000       2.11900000
H        2.90280000      -0.11560000       0.56050000
H        2.18360000       1.22910000       1.44510000
H        2.71890000      -0.20420000       2.31160000
