17
Properties=species:S:1:pos:R:3 gdb_81234=T pbc="F F F"
O        0.11960000       1.45860000      -0.08560000
C        0.03910000       0.07010000       0.03410000
C       -0.00090000      -0.63600000       1.40800000
C       -1.07150000       0.25450000       2.14710000
C       -2.16650000       0.03810000       1.07810000
O       -2.76020000       0.89590000       0.03820000
C       -2.44950000      -0.13930000      -0.95390000
C       -1.34310000      -0.60290000       0.00610000
O       -0.72170000      -1.73380000       0.70340000
H        1.03670000       1.69900000      -0.24800000
H        0.70610000      -0.46170000      -0.65230000
H        0.87360000      -0.99240000       1.95080000
H       -1.36500000      -0.11590000       3.13000000
H       -0.69750000       1.27650000       2.22860000
H       -2.95300000      -0.62400000       1.45780000
H       -3.28570000      -0.83640000      -1.08650000
H       -2.14070000       0.29190000      -1.90970000
