14
Properties=species:S:1:pos:R:3 gdb_127776=T pbc="F F F"
C        0.00530000       1.44780000      -0.02460000
N       -0.00430000       0.00520000       0.07580000
N       -0.02700000      -0.77040000      -1.07380000
N       -0.03060000      -2.04640000      -0.72190000
C       -0.02310000      -2.07240000       0.61060000
C       -0.00780000      -0.82040000       1.12540000
O        0.06650000      -0.79290000       2.47790000
C       -0.16480000      -2.21150000       2.79290000
O        0.05620000      -3.00640000       1.61940000
H        0.90400000       1.86160000       0.44080000
H       -0.00090000       1.68940000      -1.08750000
H       -0.87940000       1.87520000       0.45520000
H        0.53590000      -2.50810000       3.57440000
H       -1.20900000      -2.31090000       3.11810000
