15
Properties=species:S:1:pos:R:3 gdb_20236=T pbc="F F F"
C       -0.02900000       1.57720000       0.02700000
O        1.33860000       2.02700000       0.01230000
C        2.13250000       0.86830000      -0.11870000
C        1.92510000       0.05680000      -1.40490000
C        1.65940000      -1.19470000      -0.65470000
C        1.44190000      -0.31880000       0.61700000
C        0.06410000       0.05540000       0.03220000
N        0.52160000      -0.48900000      -1.30770000
H       -0.52680000       1.97910000       0.91810000
H       -0.55760000       1.93460000      -0.86580000
H        3.16670000       1.09590000       0.13770000
H        2.31990000       0.21390000      -2.40010000
H        1.92010000      -2.22750000      -0.83480000
H        1.63280000      -0.54720000       1.66230000
H       -0.81900000      -0.47980000       0.38050000
