17
Properties=species:S:1:pos:R:3 gdb_1760=T pbc="F F F"
C       -0.08110000       1.52700000      -0.06400000
C        0.03610000       0.02160000       0.01930000
C        1.33920000      -0.68930000      -0.21470000
C        0.72700000      -0.69420000       1.18330000
C        1.41190000       0.09110000       2.29340000
C        0.11700000      -1.92230000       1.62370000
C       -0.39090000      -2.94190000       2.01220000
H        0.83390000       2.03340000       0.25480000
H       -0.27810000       1.83350000      -1.09730000
H       -0.90430000       1.89990000       0.55520000
H       -0.84160000      -0.50550000      -0.34360000
H        1.34110000      -1.61760000      -0.77350000
H        2.22960000      -0.08130000      -0.34390000
H        1.88960000       0.99600000       1.91100000
H        0.69490000       0.38380000       3.06710000
H        2.18490000      -0.52090000       2.76830000
H       -0.84000000      -3.84270000       2.34940000
