22
Properties=species:S:1:pos:R:3 gdb_63370=T pbc="F F F"
C       -0.57660000       1.48660000      -0.31930000
C       -0.00770000       0.07100000      -0.21960000
C       -1.09090000      -0.98490000      -0.46130000
N        1.25320000      -0.11230000      -1.01720000
C        2.07190000      -0.50310000       0.18130000
C        2.49460000      -1.97470000       0.22990000
C        3.26150000       0.42710000       0.42060000
C        0.83300000      -0.19380000       1.04580000
O        0.61430000      -0.16470000       2.22170000
H        0.20940000       2.23350000      -0.18410000
H       -1.02660000       1.64520000      -1.30520000
H       -1.34540000       1.64530000       0.44370000
H       -1.50150000      -0.87670000      -1.47190000
H       -0.70150000      -2.00220000      -0.35760000
H       -1.91200000      -0.86400000       0.25150000
H        1.17720000      -0.86240000      -1.69720000
H        3.22510000      -2.18160000      -0.56070000
H        2.96170000      -2.20940000       1.19100000
H        1.64410000      -2.64980000       0.09470000
H        2.95920000       1.47440000       0.34590000
H        3.68820000       0.25570000       1.41410000
H        4.04000000       0.24650000      -0.32850000
