17
Properties=species:S:1:pos:R:3 gdb_6591=T pbc="F F F"
C       -0.02000000       1.46670000       0.01380000
C        0.00230000      -0.03610000       0.00030000
C        0.62990000      -0.96500000      -1.08920000
C        0.03010000      -1.92460000      -0.01660000
C        0.64610000      -0.98400000       1.06360000
C       -1.22680000      -1.00210000       0.00080000
C        0.05120000      -3.36550000      -0.02930000
N        0.06820000      -4.52190000      -0.03950000
H        0.99630000       1.87480000       0.00860000
H       -0.54460000       1.85990000      -0.86360000
H       -0.52940000       1.84390000       0.90700000
H        0.14530000      -0.97590000      -2.06860000
H        1.71930000      -0.96080000      -1.17510000
H        1.73670000      -0.98130000       1.13310000
H        0.17650000      -1.01240000       2.05000000
H       -1.83210000      -1.03170000       0.91020000
H       -1.84580000      -1.01590000      -0.89970000
