14
Properties=species:S:1:pos:R:3 gdb_27586=T pbc="F F F"
N       -0.01650000       1.40560000       0.13900000
C       -0.01250000       0.02410000       0.04330000
C       -1.19350000      -0.72040000       0.03620000
C       -1.11430000      -2.11420000       0.00060000
C        0.14600000      -2.72640000      -0.02860000
N        1.27550000      -2.02250000      -0.02550000
C        1.19610000      -0.69710000       0.00830000
C       -2.30220000      -2.90910000      -0.01000000
N       -3.26240000      -3.55570000      -0.01990000
H        0.82270000       1.87110000      -0.17220000
H       -0.85500000       1.87170000      -0.17250000
H       -2.16060000      -0.23000000       0.06100000
H        0.23010000      -3.80780000      -0.05690000
H        2.14020000      -0.15400000       0.01090000
