21
Properties=species:S:1:pos:R:3 gdb_68026=T pbc="F F F"
C       -0.03810000       1.52080000       0.04400000
C        0.04040000       0.01120000       0.05280000
C        0.90740000      -0.79500000      -0.98220000
C        0.74140000      -1.91730000       0.11050000
O        1.51780000      -3.07220000       0.16730000
C        0.84000000      -0.76270000       1.14380000
C       -0.76390000      -2.20250000      -0.01330000
C       -1.71860000      -1.71790000       1.04850000
C       -1.28660000      -0.78180000      -0.05500000
H        0.95800000       1.97430000       0.07970000
H       -0.53810000       1.88450000      -0.86130000
H       -0.60650000       1.89010000       0.90510000
H        0.47750000      -0.98140000      -1.97050000
H        1.93350000      -0.42100000      -1.07050000
H        2.44310000      -2.81180000       0.21470000
H        1.86330000      -0.38200000       1.21500000
H        0.43020000      -0.88380000       2.14720000
H       -1.06770000      -2.96880000      -0.71700000
H       -2.73320000      -2.09500000       0.95960000
H       -1.40690000      -1.57730000       2.07630000
H       -2.01250000      -0.45290000      -0.79140000
