14
Properties=species:S:1:pos:R:3 gdb_87086=T pbc="F F F"
O        0.03000000       1.38070000      -0.03080000
C        0.06830000       0.00350000       0.05610000
C       -0.40760000      -0.72190000       1.28180000
C       -1.26390000      -0.74820000       0.01070000
O       -2.35160000       0.13670000      -0.04720000
C       -1.39800000      -1.95810000      -0.73690000
C       -1.51210000      -2.98920000      -1.36080000
C       -1.63650000      -4.15110000      -2.06330000
N       -1.74270000      -5.14340000      -2.65920000
H       -0.90120000       1.64150000       0.00310000
H        0.89730000      -0.42380000      -0.49770000
H        0.08780000      -1.64030000       1.57550000
H       -0.80690000      -0.11930000       2.09100000
H       -3.04440000      -0.17930000       0.54390000
