23
Properties=species:S:1:pos:R:3 gdb_121531=T pbc="F F F"
C        0.06560000       1.57040000      -0.17220000
C        0.01300000       0.05310000       0.02460000
C       -1.41480000      -0.50070000       0.01720000
C       -1.46040000      -2.02940000       0.21440000
C       -2.81380000      -2.57390000       0.20560000
C       -3.94690000      -2.98490000       0.18530000
C       -5.30930000      -3.52740000       0.20630000
C       -5.33480000      -5.00650000      -0.20640000
O       -5.94000000      -3.32960000       1.47190000
H        1.09620000       1.93850000      -0.16200000
H       -0.38280000       1.86110000      -1.12860000
H       -0.48250000       2.09120000       0.62060000
H        0.59760000      -0.44010000      -0.76370000
H        0.50010000      -0.21130000       0.97280000
H       -2.00580000      -0.02230000       0.80720000
H       -1.90800000      -0.24950000      -0.92950000
H       -0.86640000      -2.51570000      -0.57140000
H       -0.96910000      -2.28840000       1.16220000
H       -5.93070000      -2.95840000      -0.49630000
H       -4.72050000      -5.60380000       0.47520000
H       -6.36260000      -5.37730000      -0.17100000
H       -4.94130000      -5.13520000      -1.21900000
H       -5.33560000      -3.66110000       2.14520000
