22
Properties=species:S:1:pos:R:3 gdb_11854=T pbc="F F F"
C        0.08400000       1.49230000      -0.16880000
C        0.02130000      -0.02110000       0.06010000
C       -1.40010000      -0.56780000       0.07670000
C       -2.20940000      -0.58070000      -1.25950000
C       -2.67300000      -2.00070000      -0.91010000
C       -4.10280000      -2.43680000      -0.76860000
C       -3.20870000      -3.06550000      -1.81630000
C       -1.59910000      -2.11110000       0.17980000
H        1.11780000       1.85140000      -0.18830000
H       -0.38200000       1.76840000      -1.12100000
H       -0.44200000       2.03430000       0.62510000
H        0.59230000      -0.53650000      -0.72450000
H        0.51480000      -0.27070000       1.00920000
H       -1.98010000      -0.06250000       0.85760000
H       -2.98370000       0.18110000      -1.38740000
H       -1.55010000      -0.55750000      -2.13570000
H       -4.37440000      -3.03550000       0.09570000
H       -4.88250000      -1.75920000      -1.10330000
H       -3.38590000      -2.81250000      -2.85730000
H       -2.87820000      -4.08770000      -1.65850000
H       -0.71190000      -2.65990000      -0.15750000
H       -1.90780000      -2.51160000       1.14980000
