18
Properties=species:S:1:pos:R:3 gdb_20036=T pbc="F F F"
O       -0.09330000       1.36860000      -0.65430000
C        0.03930000       0.23880000       0.19280000
C       -1.27910000      -0.47940000       0.33570000
O       -1.72510000      -1.17720000      -0.84230000
C       -1.45080000      -1.94230000       0.33940000
C       -0.35070000      -2.94660000       0.28530000
C       -0.18430000      -3.90730000       1.44110000
C       -0.70350000      -4.40710000       0.12070000
H       -0.45320000       1.04480000      -1.48810000
H        0.81470000      -0.44670000      -0.17510000
H        0.36390000       0.62030000       1.16710000
H       -2.06030000       0.12340000       0.80330000
H       -2.35380000      -2.31630000       0.83030000
H        0.55570000      -2.61490000      -0.20750000
H        0.82390000      -4.17140000       1.73910000
H       -0.88420000      -3.83180000       2.26690000
H       -1.75520000      -4.66540000       0.05290000
H       -0.05430000      -5.01900000      -0.49480000
