20
Properties=species:S:1:pos:R:3 gdb_61906=T pbc="F F F"
C       -0.08990000       1.49660000       0.09960000
N        0.00160000       0.05160000       0.00820000
C        0.07910000      -0.68390000       1.26510000
C       -1.30510000      -1.17490000       1.74950000
C       -1.23040000      -1.82250000       3.05130000
C       -1.12940000      -2.34410000       4.12960000
C       -0.03180000      -0.67820000      -1.15460000
C       -0.08020000       0.08060000      -2.47370000
O       -0.01700000      -1.89930000      -1.12990000
H       -0.21880000       1.94160000      -0.88490000
H       -0.94590000       1.79770000       0.71720000
H        0.81550000       1.92140000       0.55250000
H        0.72910000      -1.54830000       1.12230000
H        0.52710000      -0.03060000       2.01940000
H       -2.00140000      -0.32770000       1.79660000
H       -1.69460000      -1.87110000       0.99940000
H       -1.05680000      -2.81480000       5.07840000
H        0.75910000       0.77430000      -2.58260000
H       -0.03770000      -0.66030000      -3.27120000
H       -1.00610000       0.65590000      -2.57680000
