23
Properties=species:S:1:pos:R:3 gdb_59969=T pbc="F F F"
C       -2.10790000       1.69900000      -1.08820000
C       -2.03260000       0.18150000      -1.24740000
O       -1.12450000      -0.18350000      -2.29070000
C       -1.68760000      -0.52320000       0.07230000
C       -1.58940000      -2.04840000      -0.05280000
C       -1.02740000      -2.68530000       1.23530000
C       -2.95790000      -2.67650000      -0.34030000
C       -2.95880000      -3.94920000      -1.16600000
O       -3.98340000      -2.18720000       0.07920000
H       -2.34340000       2.17090000      -2.04590000
H       -2.87570000       1.98200000      -0.36130000
H       -1.14970000       2.10100000      -0.73400000
H       -3.00420000      -0.18590000      -1.59600000
H       -0.26620000       0.19810000      -2.07370000
H       -0.73000000      -0.13170000       0.44450000
H       -2.45040000      -0.27590000       0.81810000
H       -0.92080000      -2.29230000      -0.88570000
H       -0.94580000      -3.77380000       1.15270000
H       -0.02870000      -2.29220000       1.44940000
H       -1.67300000      -2.45920000       2.09010000
H       -2.19930000      -4.65470000      -0.81370000
H       -3.94520000      -4.41410000      -1.14430000
H       -2.69900000      -3.69730000      -2.20150000
