18
Properties=species:S:1:pos:R:3 gdb_111638=T pbc="F F F"
C        0.29700000       0.92540000      -0.27170000
O       -0.41440000       0.02860000       0.56860000
C        0.40350000      -0.65890000       1.44280000
C        0.02690000      -2.06370000       1.80470000
O       -0.85940000      -2.71110000       0.90930000
C       -0.20330000      -2.74560000      -0.27770000
N        0.99250000      -2.31620000      -0.33370000
C        1.30550000      -1.80530000       0.98350000
C        2.72750000      -1.94390000       1.45460000
H        1.02020000       0.38880000      -0.89800000
H       -0.44280000       1.41620000      -0.90780000
H        0.82580000       1.69030000       0.31550000
H        0.81780000      -0.06760000       2.26280000
H       -0.06310000      -2.41870000       2.82360000
H       -0.77110000      -3.16660000      -1.09770000
H        3.40660000      -1.41860000       0.77560000
H        2.85110000      -1.52150000       2.45640000
H        3.02940000      -2.99570000       1.48700000
