15
Properties=species:S:1:pos:R:3 gdb_80315=T pbc="F F F"
C       -0.06050000       1.56320000       0.01830000
C        0.08150000       0.05960000       0.05540000
C        1.35910000      -0.67500000      -0.21310000
O        2.56620000       0.06220000      -0.04620000
C        2.59420000       0.39910000       1.27150000
N        1.65920000      -0.00940000       2.03700000
C        0.74130000      -0.72140000       1.18910000
C        3.71180000       1.19300000       1.68730000
N        4.61480000       1.83390000       2.01680000
H        0.78630000       2.07580000       0.47860000
H       -0.13810000       1.91310000      -1.01580000
H       -0.96330000       1.87340000       0.55260000
H       -0.77510000      -0.48070000      -0.34060000
H        1.46430000      -1.48260000      -0.92560000
H        0.23780000      -1.57020000       1.63430000
