12
Properties=species:S:1:pos:R:3 gdb_132633=T pbc="F F F"
N        0.01460000       1.36830000       0.16770000
C       -0.00970000      -0.00370000       0.06230000
C       -1.20410000      -0.74110000       0.03430000
N       -1.19170000      -2.07250000      -0.01450000
C       -0.03160000      -2.67450000      -0.03250000
F        0.00330000      -4.00120000      -0.07950000
C        1.15840000      -1.94180000      -0.00750000
F        2.32010000      -2.57510000      -0.03500000
N        1.17520000      -0.63600000       0.03490000
H        0.89520000       1.79570000      -0.07560000
H       -0.79880000       1.86920000      -0.15200000
H       -2.17260000      -0.25050000       0.05320000
