19
Properties=species:S:1:pos:R:3 gdb_117900=T pbc="F F F"
C       -0.08410000       1.58180000       0.07050000
C        0.03490000       0.05770000      -0.00410000
C        0.66910000      -0.54820000       1.25210000
C        0.83510000      -2.07610000       1.13630000
O        1.64440000      -2.42040000       0.04520000
C        1.43340000      -2.66580000       2.41200000
O        2.50270000      -3.24450000       2.37570000
C        0.67990000      -2.51430000       3.63540000
C        0.03020000      -2.39450000       4.64150000
H        0.89970000       2.05060000       0.18400000
H       -0.54240000       1.98760000      -0.83660000
H       -0.69860000       1.89380000       0.92250000
H       -0.95940000      -0.38420000      -0.15320000
H        0.63540000      -0.23160000      -0.87240000
H        1.66030000      -0.10710000       1.41900000
H        0.05810000      -0.31830000       2.13340000
H       -0.16700000      -2.52440000       1.01710000
H        2.40380000      -2.89360000       0.42230000
H       -0.53280000      -2.29420000       5.53810000
