17
Properties=species:S:1:pos:R:3 gdb_34015=T pbc="F F F"
N        0.01610000      -1.13260000      -0.20480000
C        0.01170000       0.01940000      -0.09500000
C       -0.01050000       1.45890000       0.02190000
N        0.43030000       2.23880000      -1.17080000
C        1.30470000       2.17850000       0.00870000
C        1.42460000       3.45570000       0.83240000
C        0.53170000       3.44100000       2.08900000
C       -0.85560000       2.92280000       1.80080000
C       -1.11360000       2.02830000       0.84820000
H        0.76040000       1.59760000      -1.89040000
H        2.19150000       1.55510000      -0.06250000
H        2.46920000       3.61560000       1.11650000
H        1.12770000       4.29270000       0.19370000
H        0.99000000       2.82340000       2.87490000
H        0.47320000       4.45170000       2.50570000
H       -1.67200000       3.30660000       2.40650000
H       -2.11980000       1.67200000       0.65390000
