21
Properties=species:S:1:pos:R:3 gdb_57891=T pbc="F F F"
C       -0.05070000       1.56380000       0.09110000
C       -0.07150000       0.03630000       0.01280000
C        0.73090000      -0.60670000       1.16490000
C       -1.49550000      -0.51210000       0.03200000
O       -2.43640000       0.16930000       0.42380000
C       -1.70260000      -1.89150000      -0.45310000
C       -2.81730000      -2.72830000       0.19310000
C       -3.06160000      -2.16870000      -1.15670000
O       -3.95700000      -1.14920000      -1.38960000
H        0.97960000       1.93200000       0.07590000
H       -0.58950000       2.01190000      -0.74810000
H       -0.53070000       1.90920000       1.01020000
H        0.38420000      -0.29090000      -0.93200000
H        0.31080000      -0.31720000       2.13370000
H        0.72810000      -1.69920000       1.10750000
H        1.77110000      -0.26920000       1.13260000
H       -0.83090000      -2.41800000      -0.82430000
H       -2.62440000      -3.78930000       0.30800000
H       -3.32850000      -2.25130000       1.02300000
H       -3.00470000      -2.83850000      -2.00890000
H       -3.81920000      -0.48860000      -0.68710000
