15
Properties=species:S:1:pos:R:3 gdb_43993=T pbc="F F F"
O       -0.13110000       0.10790000      -0.12140000
C       -0.00210000       1.27770000       0.02320000
O       -1.01250000       2.21890000       0.23680000
C       -0.04020000       3.28660000       0.05090000
C        0.97280000       3.28240000       1.12490000
C        1.11250000       2.29630000      -0.04080000
C        1.91310000       2.69940000      -1.25840000
O        1.42660000       4.01560000      -1.59150000
C        0.05400000       4.12850000      -1.19490000
H        1.70050000       4.08760000       1.11670000
H        0.69770000       2.90550000       2.10270000
H        2.98980000       2.79740000      -1.10100000
H        1.73890000       1.98550000      -2.07550000
H       -0.63730000       3.72120000      -1.94780000
H       -0.14740000       5.19410000      -1.06220000
