20
Properties=species:S:1:pos:R:3 gdb_59418=T pbc="F F F"
C       -0.10620000       1.46690000      -0.25610000
C        0.02870000      -0.00860000       0.12120000
O        0.67660000      -0.18280000       1.37820000
C       -1.32330000      -0.69590000       0.11300000
N       -1.81100000      -1.24330000      -1.14530000
C       -1.48120000      -2.18590000      -0.05870000
C       -0.31540000      -3.13110000      -0.24330000
C       -2.65910000      -2.73680000       0.67860000
O       -3.77010000      -2.26190000       0.61800000
H        0.87330000       1.95200000      -0.24170000
H       -0.53930000       1.57140000      -1.25530000
H       -0.76080000       1.99140000       0.45180000
H        0.67960000      -0.50090000      -0.60620000
H        0.19160000       0.32980000       2.03450000
H       -2.06530000      -0.23190000       0.76560000
H       -2.82770000      -1.15600000      -1.17730000
H        0.47200000      -2.67180000      -0.84090000
H        0.11080000      -3.41530000       0.72420000
H       -0.63360000      -4.04240000      -0.76110000
H       -2.45120000      -3.63330000       1.30150000
