19
Properties=species:S:1:pos:R:3 gdb_48409=T pbc="F F F"
O       -0.25240000       0.44500000      -1.25410000
C       -0.10610000       1.01890000      -0.20170000
C        1.10190000       1.81070000       0.16660000
C        2.41800000       1.44780000      -0.50070000
C        1.69320000       2.68540000      -0.92330000
O        1.07580000       2.35250000       1.45310000
C        1.45390000       1.46430000       2.47370000
C        2.85900000       1.51520000       3.01430000
C        1.69720000       2.07840000       3.81130000
H       -0.89330000       1.01960000       0.58520000
H        3.30810000       1.55460000       0.10570000
H        2.39020000       0.58940000      -1.16230000
H        1.17790000       2.68210000      -1.87670000
H        2.07290000       3.64260000      -0.58590000
H        0.95710000       0.49630000       2.43080000
H        3.32550000       0.59280000       3.34230000
H        3.53390000       2.23460000       2.56490000
H        1.61570000       3.15800000       3.86610000
H        1.35680000       1.55020000       4.69430000
