17
Properties=species:S:1:pos:R:3 gdb_66956=T pbc="F F F"
C       -0.01360000       1.49820000       0.08700000
C       -0.04580000       0.00480000       0.06330000
C        0.15890000      -1.00560000       1.13070000
C       -0.41690000      -2.07450000       0.12790000
C        0.99280000      -2.08220000      -0.47810000
N        1.25550000      -0.74490000       0.14850000
C       -1.07740000      -0.89520000      -0.65870000
C       -2.43930000      -0.60680000      -0.23820000
N       -3.52020000      -0.36930000       0.09740000
H        0.74980000       1.84740000       0.78660000
H        0.22830000       1.89870000      -0.90350000
H       -0.98320000       1.90220000       0.39410000
H        0.26690000      -0.94500000       2.20510000
H       -0.99030000      -2.97090000       0.35070000
H        1.65700000      -2.81560000      -0.01500000
H        1.09500000      -2.12310000      -1.56890000
H       -1.03400000      -0.95190000      -1.75250000
