17
Properties=species:S:1:pos:R:3 gdb_51290=T pbc="F F F"
O        1.99040000       4.12520000      -0.04000000
C        1.09150000       3.31870000       0.01240000
N        1.22600000       1.95370000      -0.02190000
C        2.40960000       1.22270000      -0.13570000
C        2.50460000      -0.10580000      -0.27780000
C        3.95690000      -0.52040000      -0.30080000
N        4.74150000       0.73430000      -0.22480000
C        4.55680000       1.64030000      -1.36190000
C        3.76810000       1.84570000      -0.11550000
H        0.02520000       3.60400000       0.10170000
H        0.37060000       1.42030000       0.02840000
H        1.67640000      -0.79730000      -0.37970000
H        4.21860000      -1.15370000       0.55810000
H        4.23130000      -1.08390000      -1.20230000
H        5.41180000       2.27640000      -1.57280000
H        4.01800000       1.28040000      -2.23620000
H        3.98210000       2.66410000       0.55920000
