21
Properties=species:S:1:pos:R:3 gdb_59947=T pbc="F F F"
C       -0.12470000       1.52010000      -0.08770000
C        0.18470000       0.02590000      -0.13840000
O        1.32240000      -0.22210000      -0.98750000
C        0.56650000      -0.54210000       1.23020000
C        0.50390000      -2.09540000       1.32310000
C       -0.93790000      -2.58720000       1.53860000
O        0.96750000      -2.71340000       0.12470000
C        1.33610000      -2.52240000       2.46520000
C        2.01120000      -2.85600000       3.40240000
H        0.71900000       2.07360000       0.33590000
H       -0.31750000       1.91080000      -1.09310000
H       -1.01260000       1.71410000       0.52240000
H       -0.68660000      -0.51380000      -0.53560000
H        1.06260000      -0.06140000      -1.90040000
H        1.58610000      -0.20600000       1.44650000
H       -0.08030000      -0.12190000       2.00600000
H       -1.58500000      -2.21960000       0.73670000
H       -0.95380000      -3.67910000       1.51750000
H       -1.32960000      -2.24770000       2.50130000
H        1.46840000      -2.05160000      -0.37410000
H        2.61360000      -3.16360000       4.22110000
