18
Properties=species:S:1:pos:R:3 gdb_67903=T pbc="F F F"
C       -0.10760000       1.47820000       0.00410000
C        0.04040000      -0.01440000       0.06750000
O       -1.26330000      -0.71790000       0.06250000
C       -0.92870000      -1.42270000       1.21140000
N       -1.60750000      -2.23350000       1.88680000
C        0.46230000      -0.83080000       1.30570000
C        1.57840000      -1.49850000       0.45510000
C        1.03460000      -2.18350000      -0.76120000
C        1.14670000      -0.68550000      -0.77730000
H        0.86620000       1.96010000       0.13580000
H       -0.50640000       1.78090000      -0.97040000
H       -0.78660000       1.83720000       0.78240000
H       -2.53820000      -2.36080000       1.48380000
H        0.76880000      -0.37140000       2.24290000
H        2.57510000      -1.68890000       0.83010000
H        1.77920000      -2.69340000      -1.36390000
H        0.06350000      -2.66660000      -0.74960000
H        1.75190000      -0.15780000      -1.50460000
