14
Properties=species:S:1:pos:R:3 gdb_20955=T pbc="F F F"
C       -0.00660000       1.48570000      -0.01170000
C        0.00100000      -0.02970000       0.00460000
O        0.68000000      -0.46750000      -1.18810000
C        0.79180000      -1.78600000      -1.35880000
C        1.38120000      -2.46040000      -2.38580000
O        1.25410000      -3.76930000      -2.13480000
N        0.56580000      -3.89420000      -0.91730000
N        0.30880000      -2.72920000      -0.48710000
H        1.01340000       1.87940000      -0.02110000
H       -0.53100000       1.86220000      -0.89420000
H       -0.51520000       1.86210000       0.88050000
H        0.52510000      -0.42430000       0.88230000
H       -1.01450000      -0.44140000       0.01200000
H        1.88790000      -2.16250000      -3.28620000
