21
Properties=species:S:1:pos:R:3 gdb_71624=T pbc="F F F"
C       -0.01750000       1.48600000       0.00440000
C        0.02390000      -0.01750000      -0.02900000
C        0.67100000      -0.94380000      -1.09450000
C        0.06030000      -1.92090000      -0.05910000
C        0.62090000      -0.97780000       1.06000000
C       -0.08590000      -0.99410000       2.41370000
C       -1.51360000      -1.50810000       2.21350000
O       -2.08820000      -0.99380000       1.01940000
C       -1.19640000      -0.99410000      -0.06580000
H        0.98810000       1.91380000       0.08270000
H       -0.48270000       1.88550000      -0.90360000
H       -0.60370000       1.83970000       0.85960000
H        0.22370000      -0.93720000      -2.09360000
H        1.76300000      -0.92540000      -1.14620000
H        0.09120000      -3.01080000      -0.09010000
H        1.71250000      -0.94920000       1.14470000
H        0.43740000      -1.64180000       3.12630000
H       -0.08850000       0.01600000       2.84290000
H       -1.49870000      -2.60810000       2.16440000
H       -2.18060000      -1.22030000       3.03070000
H       -1.80030000      -0.98140000      -0.97810000
