20
Properties=species:S:1:pos:R:3 gdb_12926=T pbc="F F F"
C        0.15280000       1.07290000      -0.39110000
O       -0.06970000       0.00150000       0.50280000
C       -1.30850000      -0.61050000       0.31310000
C       -1.55250000      -1.63990000      -0.75800000
C       -0.28530000      -2.47050000      -0.98900000
C       -0.25440000      -2.83670000       0.52630000
C       -1.53400000      -2.01430000       0.75480000
C       -2.64080000      -2.41770000       1.68740000
H        1.15060000       1.46680000      -0.18330000
H        0.10420000       0.74530000      -1.43940000
H       -0.58350000       1.87900000      -0.24780000
H       -2.15590000       0.05790000       0.48730000
H       -2.39360000      -1.56690000      -1.43940000
H       -0.46190000      -3.34150000      -1.62340000
H        0.58080000      -1.92530000      -1.37510000
H       -0.41700000      -3.90390000       0.69740000
H        0.62270000      -2.51380000       1.09240000
H       -2.31670000      -2.35180000       2.73360000
H       -3.51850000      -1.77290000       1.57290000
H       -2.95870000      -3.45070000       1.50480000
