20
Properties=species:S:1:pos:R:3 gdb_87873=T pbc="F F F"
C       -0.19800000       1.49800000       0.23220000
C       -0.10100000      -0.00740000       0.25180000
N        1.16980000      -0.59600000      -0.22410000
C        0.78870000      -0.73390000       1.18310000
C        1.66370000      -0.23980000       2.35030000
C        1.31960000      -1.54200000       3.12640000
C       -0.02970000      -1.52920000       3.87010000
O       -0.75060000      -1.97410000       2.69410000
C        0.46580000      -2.03680000       1.92200000
H        0.75620000       1.94920000       0.51690000
H       -0.45510000       1.85900000      -0.76930000
H       -0.97040000       1.84650000       0.92630000
H       -1.01810000      -0.53090000      -0.01640000
H        0.99450000      -1.46730000      -0.72120000
H        2.71830000      -0.16670000       2.07280000
H        1.36120000       0.69500000       2.83200000
H        2.13780000      -2.10460000       3.57210000
H       -0.11800000      -2.25950000       4.68350000
H       -0.37600000      -0.55100000       4.22770000
H        0.57700000      -2.98680000       1.38830000
