19
Properties=species:S:1:pos:R:3 gdb_64978=T pbc="F F F"
C        0.14330000       1.34080000      -0.57460000
C        0.10790000      -0.08960000      -0.07210000
C        1.43030000      -0.81130000       0.15580000
C        0.62120000      -0.37760000       1.33330000
C       -1.00760000      -0.99950000      -0.50350000
O       -1.09190000      -2.15730000      -0.13470000
N       -1.94640000      -0.44150000      -1.35490000
C       -3.03820000      -1.13590000      -1.85040000
N       -3.85900000      -0.55730000      -2.62890000
H        1.01410000       1.86190000      -0.16770000
H        0.22200000       1.39180000      -1.66710000
H       -0.74250000       1.90810000      -0.26470000
H        1.44450000      -1.86930000      -0.07490000
H        2.33200000      -0.26210000      -0.09230000
H        0.95410000       0.47630000       1.91310000
H        0.09670000      -1.14710000       1.88620000
H       -1.86550000       0.51860000      -1.65350000
H       -3.06810000      -2.16580000      -1.49110000
H       -4.59930000      -1.20140000      -2.90100000
