14
Properties=species:S:1:pos:R:3 gdb_50416=T pbc="F F F"
O        0.19270000      -0.18430000       0.15400000
C        0.05420000       1.00250000       0.00760000
C        1.23940000       1.96570000      -0.01890000
N        2.50920000       1.24720000      -0.02720000
C        3.01580000       1.37610000      -1.31120000
N        2.48520000       2.23780000      -2.09100000
C        1.38320000       2.84570000      -1.32320000
C        0.15030000       2.94540000      -2.11240000
N       -0.84200000       3.02590000      -2.69840000
H       -0.94440000       1.47340000      -0.08150000
H        1.13780000       2.61700000       0.85810000
H        2.45230000       0.30510000       0.34610000
H        3.87100000       0.77320000      -1.60030000
H        1.67120000       3.86550000      -1.03990000
