21
Properties=species:S:1:pos:R:3 gdb_115633=T pbc="F F F"
C       -0.35330000       1.46020000       0.00700000
O       -0.53640000       0.20290000       0.62100000
C       -1.39280000      -0.63960000      -0.08980000
C       -0.88320000      -1.36470000      -1.37560000
C       -1.51430000      -2.68710000      -0.84030000
C       -1.61690000      -2.02380000       0.53820000
O       -0.82320000      -2.47450000       1.62230000
C       -2.25210000      -2.41070000       1.79790000
C       -2.76010000      -1.39120000       2.78480000
H        0.30410000       2.04420000       0.65520000
H        0.11580000       1.36960000      -0.98380000
H       -1.30800000       1.99690000      -0.11160000
H       -2.35840000      -0.14010000      -0.28230000
H       -1.23330000      -0.99210000      -2.34020000
H        0.20860000      -1.41300000      -1.37460000
H       -2.48890000      -2.91130000      -1.28300000
H       -0.88990000      -3.58140000      -0.87710000
H       -2.72680000      -3.39340000       1.84110000
H       -2.22630000      -0.44660000       2.65740000
H       -3.83300000      -1.21930000       2.64240000
H       -2.61020000      -1.73980000       3.81200000
