17
Properties=species:S:1:pos:R:3 gdb_2583=T pbc="F F F"
C        0.18100000       1.47470000       0.25500000
C       -0.14560000       0.03040000      -0.13540000
C        0.67250000      -0.47910000      -1.32000000
C        2.06360000      -1.03490000      -1.04430000
C        0.95060000      -1.97220000      -1.41480000
C        0.47690000       0.23110000      -2.55720000
C        0.29510000       0.83440000      -3.58270000
H        1.23220000       1.57750000       0.54400000
H       -0.00270000       2.15470000      -0.58210000
H       -0.43480000       1.79990000       1.09900000
H        0.03630000      -0.63580000       0.71660000
H       -1.21150000      -0.05640000      -0.37800000
H        2.83780000      -0.84230000      -1.77700000
H        2.40040000      -1.01730000      -0.01300000
H        0.52370000      -2.60040000      -0.64020000
H        0.96340000      -2.41650000      -2.40280000
H        0.14090000       1.36290000      -4.49030000
