12
Properties=species:S:1:pos:R:3 gdb_27919=T pbc="F F F"
O        0.12150000       1.24910000       0.09960000
C        0.10700000      -0.08140000       0.05160000
N        0.11030000      -0.65440000      -1.15410000
C        0.09490000      -1.99130000      -1.10800000
O        0.09700000      -2.63970000      -2.27040000
N        0.07760000      -2.74910000      -0.01970000
C        0.07650000      -2.04020000       1.10400000
O        0.05960000      -2.74250000       2.23310000
N        0.09050000      -0.70810000       1.22050000
H        0.13230000       1.55990000      -0.81650000
H        0.11010000      -1.96680000      -2.96520000
H        0.06100000      -2.09920000       2.95640000
