19
Properties=species:S:1:pos:R:3 gdb_78880=T pbc="F F F"
C       -0.02740000       1.46130000       0.07710000
C        0.02970000      -0.04300000       0.06500000
C       -1.20410000      -0.89190000       0.26890000
C       -0.67140000      -2.33880000       0.47070000
C       -0.01850000      -2.28920000      -0.89380000
C        0.83000000      -2.20480000       0.36880000
C        1.25570000      -0.76970000       0.60790000
O        2.46490000      -0.40080000      -0.03600000
C       -0.54590000      -0.84580000      -1.09770000
H        0.86470000       1.87840000      -0.40130000
H       -0.90770000       1.83470000      -0.45550000
H       -0.06810000       1.84920000       1.10140000
H       -2.16440000      -0.50590000       0.58350000
H       -1.18250000      -3.15470000       0.96280000
H        0.07060000      -3.06410000      -1.64270000
H        1.46970000      -3.03420000       0.64460000
H        1.41580000      -0.55590000       1.67050000
H        2.36370000      -0.62630000      -0.96840000
H       -0.90570000      -0.40620000      -2.01820000
