23
Properties=species:S:1:pos:R:3 gdb_60459=T pbc="F F F"
C        0.08130000       1.57490000      -0.07060000
C        0.02030000       0.04290000      -0.03720000
C       -1.42500000      -0.46750000       0.01190000
C        0.75410000      -0.56700000      -1.23050000
O        2.11440000      -0.18600000      -1.18530000
C        2.87450000      -0.69260000      -2.25670000
C        4.29570000      -0.22770000      -2.09920000
C        5.19370000      -0.11890000      -3.25390000
O        4.62830000       1.04560000      -2.65450000
H        1.11540000       1.92090000      -0.13090000
H       -0.45790000       1.96700000      -0.94190000
H       -0.37820000       2.00490000       0.82520000
H        0.54300000      -0.30340000       0.86460000
H       -1.98080000      -0.16600000      -0.88410000
H       -1.46710000      -1.56000000       0.07960000
H       -1.95240000      -0.05790000       0.87880000
H        0.66900000      -1.66760000      -1.21040000
H        0.29360000      -0.22390000      -2.17440000
H        2.84530000      -1.79730000      -2.26320000
H        2.48270000      -0.34230000      -3.22570000
H        4.72830000      -0.41470000      -1.11590000
H        6.26600000      -0.25010000      -3.11650000
H        4.82310000      -0.35890000      -4.25020000
