19
Properties=species:S:1:pos:R:3 gdb_35849=T pbc="F F F"
N       -0.13530000      -1.13120000      -0.27510000
C       -0.06580000       0.01610000      -0.15810000
C        0.00490000       1.47740000       0.03290000
C       -0.83690000       1.87020000       1.27160000
C       -1.09830000       3.37780000       1.40370000
C        0.10160000       4.26670000       1.63420000
C        1.26600000       4.24500000       0.98430000
C        1.67440000       3.30170000      -0.13120000
N        1.40810000       1.87410000       0.03940000
H       -0.45230000       1.93500000      -0.85610000
H       -1.80040000       1.35100000       1.21410000
H       -0.32840000       1.49460000       2.16730000
H       -1.63180000       3.72200000       0.50390000
H       -1.80430000       3.52140000       2.22820000
H       -0.03080000       5.03040000       2.39760000
H        2.01020000       4.99280000       1.25210000
H        1.19540000       3.61160000      -1.07210000
H        2.75100000       3.40410000      -0.30270000
H        1.85580000       1.53180000       0.88380000
