16
Properties=species:S:1:pos:R:3 gdb_7523=T pbc="F F F"
N       -0.36350000       1.44890000      -0.10500000
C       -0.07810000       0.03530000      -0.09950000
C        1.05400000      -0.46730000      -0.99370000
C        2.34610000       0.10520000      -0.60770000
N        3.34210000       0.59020000      -0.27850000
C       -0.32940000      -0.66340000       1.22410000
C       -1.31290000      -0.82300000       0.08740000
O       -2.55200000      -0.20380000       0.12620000
H        0.34250000       1.97490000       0.40110000
H       -0.39940000       1.81490000      -1.05220000
H        1.12350000      -1.55970000      -0.94960000
H        0.85680000      -0.20690000      -2.04170000
H        0.31020000      -1.49760000       1.49200000
H       -0.63840000      -0.03790000       2.05420000
H       -1.35960000      -1.78260000      -0.41920000
H       -2.35950000       0.74320000       0.21990000
