14
Properties=species:S:1:pos:R:3 gdb_28637=T pbc="F F F"
C        0.00820000       1.50850000       0.02020000
C        0.01150000       0.00800000      -0.01070000
C       -0.15550000      -0.71330000      -1.20280000
N       -0.15540000      -2.03990000      -1.25020000
C        0.01520000      -2.67140000      -0.08150000
C        0.18290000      -1.96550000       1.11550000
N        0.18100000      -0.63750000       1.15050000
C        0.02280000      -4.10790000      -0.07960000
N        0.03530000      -5.26370000      -0.03420000
H        0.95350000       1.88050000       0.42750000
H       -0.13710000       1.93220000      -0.97590000
H       -0.78790000       1.87160000       0.67770000
H       -0.29330000      -0.19300000      -2.14720000
H        0.32010000      -2.49370000       2.05480000
