22
Properties=species:S:1:pos:R:3 gdb_84805=T pbc="F F F"
C       -0.15320000       1.52430000       0.03640000
C        0.00800000      -0.00470000       0.09860000
C        0.71900000      -0.54030000      -1.12650000
C        1.97570000      -0.89900000      -0.86830000
C        2.32620000      -0.70740000       0.58700000
C        0.93770000      -0.51530000       1.24510000
N        0.98720000       0.37230000       2.39770000
C       -0.03390000       0.16750000       3.42080000
C        1.37740000      -0.23690000       3.66470000
H        0.81820000       2.02120000      -0.03570000
H       -0.74410000       1.80670000      -0.84160000
H       -0.65890000       1.90670000       0.92680000
H       -0.99200000      -0.44480000       0.20440000
H        0.24930000      -0.55750000      -2.10460000
H        2.68880000      -1.26160000      -1.60070000
H        2.87580000      -1.55190000       1.01770000
H        2.95010000       0.18420000       0.73780000
H        0.56980000      -1.51610000       1.53770000
H       -0.43820000       1.06740000       3.87540000
H       -0.75890000      -0.63060000       3.26620000
H        1.59250000      -1.30460000       3.67340000
H        2.02280000       0.36220000       4.30060000
