19
Properties=species:S:1:pos:R:3 gdb_65536=T pbc="F F F"
C       -0.09200000       1.54340000      -0.01200000
C        0.04790000       0.01570000       0.03280000
N        0.96670000      -0.49980000      -1.04630000
C        1.93150000      -1.29080000      -0.24100000
C        1.06750000      -2.01910000       0.82900000
C        0.80440000      -0.54750000       1.27390000
C        2.28740000      -0.27770000       0.87160000
C       -1.29290000      -0.58240000      -0.07770000
N       -2.34740000      -1.04540000      -0.18560000
H        0.88780000       2.01460000       0.07900000
H       -0.53030000       1.85350000      -0.96380000
H       -0.73660000       1.89760000       0.79830000
H        0.45540000      -1.10230000      -1.68470000
H        2.68120000      -1.79020000      -0.85340000
H        0.21900000      -2.61820000       0.48960000
H        1.65820000      -2.57190000       1.56180000
H        0.39270000      -0.28610000       2.24760000
H        2.98330000      -0.68180000       1.60780000
H        2.58850000       0.72510000       0.56630000
