15
Properties=species:S:1:pos:R:3 gdb_86860=T pbc="F F F"
O        0.38860000       0.78560000       0.75860000
C       -0.17830000      -0.24350000      -0.00350000
C       -1.64620000      -0.02930000      -0.36480000
C       -1.75730000      -0.83430000      -1.68350000
O       -0.44330000      -0.71620000      -2.30430000
C        0.47250000      -0.34050000      -1.38250000
O        1.61530000      -0.08790000      -1.63940000
C       -2.09750000      -2.23860000      -1.48330000
C       -2.39320000      -3.38890000      -1.30460000
H        1.29920000       0.88140000       0.44460000
H       -0.05330000      -1.22430000       0.48620000
H       -2.35300000      -0.37380000       0.38910000
H       -1.81280000       1.03370000      -0.55990000
H       -2.46050000      -0.37800000      -2.38440000
H       -2.65280000      -4.40850000      -1.15580000
