15
Properties=species:S:1:pos:R:3 gdb_28502=T pbc="F F F"
C       -0.03150000       1.47520000       0.06700000
C        0.00310000      -0.02580000      -0.00190000
N       -0.12380000      -0.60630000      -1.19150000
C       -0.08990000      -1.94760000      -1.22670000
C        0.06910000      -2.71990000      -0.09170000
O        0.10230000      -4.07550000      -0.13910000
C        0.19300000      -1.99960000       1.10620000
O        0.35030000      -2.71480000       2.24310000
N        0.16220000      -0.68630000       1.16210000
H        0.89510000       1.86140000       0.50440000
H       -0.16070000       1.89110000      -0.93210000
H       -0.85180000       1.81170000       0.70950000
H       -0.19300000      -2.42890000      -2.19590000
H        0.21900000      -4.40270000       0.76120000
H        0.41920000      -2.07720000       2.96740000
