19
Properties=species:S:1:pos:R:3 gdb_79389=T pbc="F F F"
C        0.01040000       1.45810000      -0.01210000
C        0.02840000      -0.04350000      -0.06360000
C        0.53460000      -0.97190000      -1.19510000
O        1.88740000      -0.93650000      -1.57820000
C        0.05220000      -1.96390000      -0.12010000
C        0.52930000      -1.04430000       1.05630000
C       -0.84620000      -1.07050000       1.75660000
C       -1.15480000      -1.01760000       0.24710000
O       -2.37210000      -0.91580000      -0.39970000
H        1.01430000       1.86360000      -0.17830000
H       -0.64650000       1.86320000      -0.78920000
H       -0.34750000       1.82610000       0.95560000
H       -0.04370000      -0.94890000      -2.12270000
H        2.42900000      -0.99430000      -0.78360000
H        0.04660000      -3.05540000      -0.11770000
H        1.51140000      -1.05450000       1.52560000
H       -1.10580000      -1.99330000       2.28660000
H       -1.11960000      -0.19310000       2.35120000
H       -2.88750000      -1.70800000      -0.21330000
