18
Properties=species:S:1:pos:R:3 gdb_23492=T pbc="F F F"
O       -0.16710000       1.32900000      -0.03060000
N        0.02430000      -0.07590000      -0.01250000
C       -1.09020000      -0.67270000       0.08390000
C       -1.41360000      -2.11540000       0.02160000
C       -2.58130000      -2.41440000       0.97480000
C       -2.81860000      -1.47670000       2.16040000
C       -3.09880000      -0.09690000       1.50240000
C       -2.56210000      -0.26020000       0.06940000
C       -2.86970000      -1.74080000      -0.32350000
H        0.73520000       1.64820000      -0.13340000
H       -0.78680000      -2.90610000      -0.37030000
H       -2.80030000      -3.47210000       1.07490000
H       -3.66790000      -1.81720000       2.76030000
H       -1.94730000      -1.44170000       2.82210000
H       -4.17500000       0.10590000       1.47090000
H       -2.61560000       0.73080000       2.02740000
H       -2.81510000       0.53930000      -0.62530000
H       -3.48750000      -2.09870000      -1.13470000
