11
Properties=species:S:1:pos:R:3 gdb_130820=T pbc="F F F"
O       -0.08670000       0.01780000       0.00190000
C       -0.03460000       1.21480000       0.00810000
C        1.33120000       1.94500000      -0.00210000
O        2.37180000       1.33500000      -0.01610000
C        1.31540000       3.42560000       0.00610000
C        2.33570000       4.33080000       0.00040000
N        1.76040000       5.57510000       0.01300000
N        0.50470000       5.48680000       0.02540000
O        0.16000000       4.10000000       0.02150000
H       -0.93480000       1.85950000       0.02110000
H        3.40080000       4.17890000      -0.01130000
