15
Properties=species:S:1:pos:R:3 gdb_39741=T pbc="F F F"
C       -0.18850000       1.44260000      -0.19030000
O        1.08580000       0.82590000       0.14830000
C       -0.02170000       0.00990000      -0.04110000
C       -0.38700000      -1.05300000       1.03550000
C       -1.28090000      -2.24440000       0.64120000
C       -2.14750000      -2.25710000      -0.62320000
N       -1.40850000      -1.28970000      -1.47490000
C       -0.25360000      -1.19650000      -0.93920000
N        0.09390000      -2.16420000       0.15400000
H       -0.64360000       2.02470000       0.60800000
H       -0.23960000       1.87340000      -1.18730000
H       -0.00340000      -0.96220000       2.05000000
H       -1.47870000      -2.95900000       1.43780000
H       -2.19970000      -3.27730000      -1.02810000
H       -3.16910000      -1.88430000      -0.50430000
