14
Properties=species:S:1:pos:R:3 gdb_33346=T pbc="F F F"
N       -0.06280000      -3.76310000      -0.14530000
C       -0.03530000      -2.60330000      -0.08590000
C       -0.00180000      -1.24020000      -0.01920000
C        0.03180000      -0.03380000       0.04020000
C        0.07250000       1.41810000       0.09420000
O       -0.12950000       1.96400000       1.42950000
C        1.08160000       2.72560000       1.31150000
C        2.26540000       1.82490000       1.19500000
C        1.42860000       2.12700000      -0.03080000
H       -0.67660000       1.83700000      -0.58870000
H        1.07260000       3.74150000       1.68570000
H        3.23190000       2.31900000       1.19810000
H        2.24440000       0.84310000       1.65850000
H        1.81530000       2.56510000      -0.93960000
