16
Properties=species:S:1:pos:R:3 gdb_45270=T pbc="F F F"
O       -0.17150000       0.11170000       0.29560000
C       -0.04190000       1.25790000       0.01600000
O       -1.00200000       2.11890000      -0.46680000
C       -0.00860000       3.19420000      -0.66180000
C       -0.20420000       4.43710000       0.20630000
N        0.56250000       4.27630000       1.45700000
C        0.13880000       3.15200000       2.29870000
C        1.29810000       2.99210000       1.37970000
C        1.06300000       2.32090000       0.02750000
H        0.09240000       3.39600000      -1.72920000
H        0.19980000       5.30730000      -0.32220000
H       -1.26160000       4.62940000       0.41200000
H        0.31350000       3.29250000       3.36160000
H       -0.78940000       2.63970000       2.05900000
H        2.30870000       2.98430000       1.77410000
H        1.98060000       2.06930000      -0.50170000
