15
Properties=species:S:1:pos:R:3 gdb_46006=T pbc="F F F"
N       -0.13000000       1.32140000      -0.28040000
C       -0.00920000       0.11600000       0.07910000
C       -1.17600000      -0.84220000      -0.04810000
C       -1.13180000      -1.96550000       0.94100000
C        0.04670000      -2.40610000       1.39270000
C        1.31940000      -1.74330000       0.91440000
O        1.15170000      -0.35890000       0.61300000
C        0.17160000      -3.50350000       2.29210000
N        0.31430000      -4.39600000       3.01660000
H        0.74690000       1.82620000      -0.13770000
H       -2.09500000      -0.25920000       0.03040000
H       -1.17310000      -1.26090000      -1.06660000
H       -2.06090000      -2.42400000       1.26120000
H        2.09320000      -1.78600000       1.68430000
H        1.70630000      -2.26580000       0.02750000
