19
Properties=species:S:1:pos:R:3 gdb_37033=T pbc="F F F"
C       -0.01070000       1.59160000       0.30250000
C        1.56410000       1.60540000       0.32600000
C        1.52610000       0.16420000      -0.21360000
O        0.78730000      -0.61260000       0.75920000
C        0.06090000       0.14550000      -0.22130000
C       -0.73160000      -0.62920000      -1.24310000
C        0.12470000      -0.93450000      -2.50560000
C        1.61890000      -1.06480000      -2.28380000
C        2.28910000      -0.55260000      -1.24670000
H       -0.52530000       1.71950000       1.25790000
H       -0.41870000       2.29530000      -0.42810000
H        1.98730000       2.32400000      -0.37970000
H        2.04310000       1.72350000       1.30040000
H       -1.06210000      -1.56700000      -0.78670000
H       -1.63320000      -0.08050000      -1.53290000
H       -0.24640000      -1.85020000      -2.97930000
H       -0.03000000      -0.14550000      -3.25690000
H        2.16380000      -1.59600000      -3.06120000
H        3.36590000      -0.66480000      -1.15870000
