15
Properties=species:S:1:pos:R:3 gdb_7897=T pbc="F F F"
C       -0.16390000       1.56600000       0.01410000
C        0.05580000       0.05560000      -0.00620000
C        0.82560000      -0.45890000      -1.24350000
C        1.83800000      -1.46220000      -0.70630000
O        2.50300000      -2.24220000      -1.32760000
C        1.87060000      -1.30010000       0.83220000
O        2.61040000      -1.85600000       1.60880000
N        0.88950000      -0.39240000       1.11020000
H        0.79190000       2.09680000      -0.03990000
H       -0.78120000       1.87050000      -0.83660000
H       -0.67870000       1.87830000       0.92900000
H       -0.92250000      -0.44250000       0.04560000
H        0.18390000      -0.90640000      -2.00490000
H        1.38070000       0.35760000      -1.72090000
H        0.66990000      -0.15760000       2.06680000
