20
Properties=species:S:1:pos:R:3 gdb_95983=T pbc="F F F"
C       -0.54370000       1.49350000       0.06130000
C       -0.09970000       0.03240000       0.00980000
C        0.74500000      -0.33570000      -1.21870000
O        1.34770000      -1.57210000      -0.88420000
C        1.79280000      -1.44650000       0.45970000
C        0.80910000      -0.48130000       1.18300000
C        1.55760000       0.65730000       1.86890000
N        1.09880000       0.99410000       3.10850000
O        2.48000000       1.25020000       1.33740000
H        0.31650000       2.16870000       0.06160000
H       -1.16330000       1.73220000      -0.80940000
H       -1.13910000       1.70330000       0.95560000
H       -0.98790000      -0.60910000       0.00010000
H        0.15350000      -0.48080000      -2.12700000
H        1.50360000       0.44130000      -1.40530000
H        1.80740000      -2.44690000       0.90040000
H        2.80340000      -1.02050000       0.49150000
H        0.19740000      -1.01810000       1.91360000
H        0.36940000       0.48300000       3.57210000
H        1.55580000       1.74520000       3.59970000
