19
Properties=species:S:1:pos:R:3 gdb_72136=T pbc="F F F"
O        0.07640000       1.39020000       0.09110000
C        0.02860000       0.00550000      -0.03160000
C        0.48010000      -0.79990000      -1.25500000
C       -0.27910000      -1.95400000      -0.53260000
C        0.62040000      -2.18510000       0.70080000
C        0.36110000      -0.78620000       1.30060000
C       -1.16650000      -0.85950000       1.60280000
C       -1.27360000      -0.87920000       0.07390000
O       -2.43980000      -0.69080000      -0.66030000
H       -0.28690000       1.77130000      -0.71580000
H       -0.05080000      -0.46700000      -2.15240000
H        1.54460000      -0.93380000      -1.47110000
H       -0.66380000      -2.80860000      -1.08530000
H        0.28310000      -2.98860000       1.36180000
H        1.66210000      -2.37240000       0.42500000
H        1.06010000      -0.37370000       2.02520000
H       -1.53860000      -1.69950000       2.19750000
H       -1.54480000       0.08640000       2.00300000
H       -2.89470000       0.07850000      -0.30060000
