20
Properties=species:S:1:pos:R:3 gdb_97255=T pbc="F F F"
C        0.05700000       1.47780000      -0.18230000
N        0.02350000       0.02580000      -0.16610000
C       -1.05570000      -0.58180000       0.09220000
C       -1.08620000      -2.09460000       0.07790000
C       -1.63240000      -2.73370000       1.36770000
C       -3.16480000      -2.76050000       1.40450000
O       -3.76910000      -1.62200000       0.79020000
C       -3.24670000      -0.39170000       1.16140000
O       -2.23200000       0.10030000       0.29090000
H        1.01830000       1.81140000       0.22120000
H        0.00580000       1.83330000      -1.21930000
H       -0.75660000       1.95270000       0.37720000
H       -1.68930000      -2.42750000      -0.77590000
H       -0.05640000      -2.40760000      -0.09650000
H       -1.27200000      -3.76480000       1.44940000
H       -1.22880000      -2.20450000       2.23830000
H       -3.54450000      -3.61110000       0.83090000
H       -3.52730000      -2.86640000       2.43770000
H       -4.04580000       0.34730000       1.07160000
H       -2.86960000      -0.40820000       2.19510000
