18
Properties=species:S:1:pos:R:3 gdb_68658=T pbc="F F F"
O       -0.08440000       1.29670000       0.02350000
C        0.01650000      -0.07540000      -0.01050000
C        0.64920000      -1.03750000       1.05190000
C        0.03590000      -1.92100000      -0.05160000
C       -1.22440000      -1.00090000      -0.03350000
C        0.65860000      -0.97390000      -1.12000000
O        0.09510000      -3.30990000       0.00380000
C       -0.51600000      -3.99200000      -0.99130000
N       -0.47690000      -5.25220000      -0.99740000
H        0.80330000       1.67070000       0.03800000
H        1.73970000      -1.04580000       1.12720000
H        0.16520000      -1.07360000       2.03020000
H       -1.83180000      -1.02520000       0.87380000
H       -1.83430000      -0.96830000      -0.93970000
H        0.18130000      -0.94590000      -2.10280000
H        1.74960000      -0.97390000      -1.18950000
H       -1.01010000      -3.34680000      -1.72740000
H       -0.98390000      -5.61010000      -1.80450000
