18
Properties=species:S:1:pos:R:3 gdb_85732=T pbc="F F F"
C       -0.24900000       1.57660000      -0.03930000
N       -0.16630000       0.13480000       0.04140000
C       -1.30420000      -0.61870000       0.58840000
C       -0.29890000      -1.60100000       1.26660000
C       -0.09220000      -2.86120000       0.58100000
C        0.07060000      -3.91190000       0.01990000
C        0.76970000      -0.47210000       0.99560000
C        2.10260000      -0.89560000       0.41030000
O        3.13100000      -0.92360000       1.03480000
H        0.70550000       1.98480000      -0.38700000
H       -1.01870000       1.86110000      -0.76400000
H       -0.49430000       2.05210000       0.92870000
H       -1.88420000      -0.05840000       1.33920000
H       -1.98450000      -1.03950000      -0.15720000
H       -0.47700000      -1.77370000       2.32940000
H        0.21890000      -4.83960000      -0.47530000
H        0.94910000       0.11650000       1.90860000
H        2.04540000      -1.18690000      -0.66030000
