16
Properties=species:S:1:pos:R:3 gdb_48499=T pbc="F F F"
O        0.13810000      -0.02680000       0.11970000
C        0.08500000       1.17830000       0.00570000
C        1.25750000       2.05190000      -0.04940000
C        2.57930000       1.62850000      -0.77700000
C        2.58020000       1.87750000       0.68030000
N        2.88460000       3.34610000       0.44710000
C        3.13890000       3.03240000      -1.04740000
C        1.99650000       3.98010000      -1.44810000
C        1.44330000       3.57500000      -0.07240000
H       -0.89340000       1.70850000      -0.04780000
H        2.63160000       0.70030000      -1.32970000
H        2.82400000       1.28460000       1.55190000
H        4.15510000       3.12890000      -1.42830000
H        2.33090000       5.02060000      -1.45410000
H        1.40910000       3.75550000      -2.34110000
H        0.77550000       4.20650000       0.51340000
