16
Properties=species:S:1:pos:R:3 gdb_29814=T pbc="F F F"
C       -0.01870000       1.44810000       0.03910000
N       -0.02070000      -0.00740000       0.01730000
C       -0.05010000      -0.77170000      -1.11840000
C       -0.03000000      -2.09320000      -0.68600000
N       -0.11170000      -3.25360000      -1.44920000
N        0.00900000      -2.14260000       0.66370000
C        0.01090000      -0.87590000       1.08090000
C        0.05050000      -0.42400000       2.46680000
O        0.08050000      -1.14930000       3.43530000
H        0.90210000       1.83490000       0.48340000
H       -0.08800000       1.81010000      -0.98730000
H       -0.87370000       1.83250000       0.60040000
H       -0.08980000      -0.32890000      -2.09990000
H        0.39560000      -3.21640000      -2.32220000
H        0.15690000      -4.06440000      -0.90700000
H        0.05280000       0.68350000       2.58320000
