19
Properties=species:S:1:pos:R:3 gdb_72268=T pbc="F F F"
C        0.04380000       1.49670000      -0.08170000
C       -0.06170000       0.00100000      -0.03160000
O        0.42150000      -0.67980000      -1.19880000
C       -0.44550000      -1.79330000      -0.83870000
C        0.40550000      -2.72990000       0.00770000
O        1.09660000      -1.94590000       0.98180000
C        0.37540000      -0.77170000       1.30250000
C       -1.12610000      -1.08000000       1.56320000
C       -1.34260000      -0.86550000       0.05540000
H        1.09550000       1.79980000      -0.13090000
H       -0.47000000       1.89310000      -0.96260000
H       -0.39740000       1.94750000       0.81320000
H       -0.89830000      -2.27410000      -1.70930000
H       -0.21250000      -3.50560000       0.48600000
H        1.16620000      -3.22320000      -0.60500000
H        0.95450000      -0.23450000       2.05520000
H       -1.35790000      -2.04750000       2.01580000
H       -1.61280000      -0.29020000       2.14290000
H       -2.30830000      -0.57850000      -0.36250000
