22
Properties=species:S:1:pos:R:3 gdb_57254=T pbc="F F F"
C        0.16960000       1.48530000       0.15700000
C        0.03200000      -0.05280000       0.03320000
C        0.55860000      -0.69280000       1.33950000
C       -1.40280000      -0.38860000      -0.07180000
N       -2.52570000      -0.65270000      -0.15090000
C        0.72780000      -0.56260000      -1.25660000
C        0.22620000       0.07730000      -2.54360000
C        2.19380000      -0.92760000      -1.22340000
C        1.14800000      -2.00850000      -1.36570000
H        1.23060000       1.75210000       0.16340000
H       -0.31600000       2.00700000      -0.66890000
H       -0.28270000       1.83520000       1.08860000
H       -0.02690000      -0.32630000       2.18630000
H        0.48000000      -1.78130000       1.33090000
H        1.60120000      -0.41180000       1.50750000
H        0.47320000       1.14200000      -2.59890000
H        0.68660000      -0.40820000      -3.40850000
H       -0.85940000      -0.02650000      -2.64280000
H        2.78930000      -0.66450000      -2.09120000
H        2.73940000      -0.87760000      -0.28880000
H        0.99500000      -2.67450000      -0.52550000
H        1.02560000      -2.48920000      -2.33010000
