19
Properties=species:S:1:pos:R:3 gdb_81545=T pbc="F F F"
C       -0.10310000       1.61400000       0.16970000
C       -0.02350000       0.10370000       0.04640000
C        1.21340000      -0.52140000      -0.66080000
O        2.05380000      -0.12430000       0.49390000
C        0.81810000      -0.68520000       1.09050000
C        0.92120000      -1.85040000       0.07690000
C       -0.13400000      -2.91650000      -0.26100000
C        1.03920000      -3.90010000      -0.08830000
O        1.95060000      -2.82090000       0.21840000
H        0.87460000       2.02460000       0.42880000
H       -0.43480000       2.06390000      -0.77210000
H       -0.82210000       1.90340000       0.94340000
H       -0.98820000      -0.34640000      -0.21340000
H        1.61360000      -0.34680000      -1.66090000
H        0.74700000      -0.70600000       2.17920000
H       -0.94460000      -3.01740000       0.46290000
H       -0.55450000      -2.85560000      -1.26630000
H        0.95210000      -4.60640000       0.74490000
H        1.34360000      -4.44400000      -0.98960000
