17
Properties=species:S:1:pos:R:3 gdb_51102=T pbc="F F F"
O       -0.61630000       0.62470000       0.64040000
C        0.18370000       0.92000000      -0.20720000
C        1.26360000       1.97780000      -0.04420000
C        1.22670000       2.98860000      -1.15960000
C        1.86720000       2.79860000      -2.49080000
C        2.36030000       3.95130000      -1.62030000
C        1.35580000       5.06250000      -1.66010000
O        1.44280000       6.25230000      -1.76250000
C        0.18310000       4.11920000      -1.27670000
H        0.18320000       0.41900000      -1.20270000
H        1.14090000       2.44740000       0.93650000
H        2.23210000       1.45760000      -0.05670000
H        2.58350000       1.98660000      -2.57390000
H        1.31930000       3.00110000      -3.40700000
H        3.39730000       4.01780000      -1.31390000
H       -0.62550000       3.98010000      -2.00010000
H       -0.24300000       4.42880000      -0.31740000
