18
Properties=species:S:1:pos:R:3 gdb_47058=T pbc="F F F"
O       -0.01200000      -0.06860000      -0.30070000
C        0.00390000       1.13380000      -0.11960000
C       -1.28630000       1.95110000      -0.04080000
O       -1.15590000       3.17390000       0.66070000
C       -0.16070000       4.00130000       0.09440000
C        0.35330000       4.97850000       1.17280000
C        1.48020000       3.96240000       1.51540000
C        1.21770000       3.29330000       0.13060000
N        1.15370000       1.85760000       0.00570000
H       -1.65150000       2.11570000      -1.06840000
H       -2.02820000       1.34860000       0.48590000
H       -0.49500000       4.40300000      -0.87300000
H        0.73570000       5.90340000       0.73470000
H       -0.36760000       5.21830000       1.95510000
H        2.48250000       4.35410000       1.69820000
H        1.19400000       3.29690000       2.33160000
H        1.88640000       3.70980000      -0.63120000
H        2.00650000       1.31690000      -0.03470000
