18
Properties=species:S:1:pos:R:3 gdb_31627=T pbc="F F F"
C        0.11440000       1.54930000      -0.14700000
C       -0.04100000       0.03040000       0.04420000
C        0.55090000      -0.46670000       1.31220000
C        0.04990000      -1.06880000       2.39980000
N        1.11210000      -1.29120000       3.28100000
C        1.06480000      -1.91790000       4.58240000
C        2.27460000      -0.81420000       2.71820000
O        3.39500000      -0.81760000       3.15800000
O        1.91580000      -0.30010000       1.48700000
H        1.16930000       1.83480000      -0.12640000
H       -0.30630000       1.86010000      -1.10760000
H       -0.40010000       2.09780000       0.64760000
H       -1.10010000      -0.24850000       0.03590000
H        0.42850000      -0.48960000      -0.80120000
H       -0.95950000      -1.36340000       2.63150000
H        0.70560000      -2.95020000       4.51170000
H        2.08210000      -1.91870000       4.97660000
H        0.41460000      -1.36170000       5.26620000
