15
Properties=species:S:1:pos:R:3 gdb_50024=T pbc="F F F"
O       -0.36710000       0.58890000       0.81010000
C        0.25270000       0.87050000      -0.18280000
C        1.43170000       1.78300000      -0.19850000
N        2.31540000       1.62950000      -1.37600000
C        1.53990000       2.83240000      -1.25580000
C        0.53270000       3.41660000      -2.26770000
N        1.11020000       4.72590000      -1.92350000
C        2.05700000       4.25760000      -1.04290000
O        2.93630000       4.76570000      -0.40190000
H       -0.01100000       0.46830000      -1.18640000
H        1.86100000       2.02500000       0.77040000
H        3.28420000       1.80560000      -1.11480000
H        0.70610000       3.10360000      -3.30120000
H       -0.52540000       3.31210000      -2.01060000
H        0.91610000       5.65460000      -2.26400000
