15
Properties=species:S:1:pos:R:3 gdb_128154=T pbc="F F F"
C       -0.10610000       1.50880000       0.06200000
N       -0.01770000       0.06770000      -0.12350000
C       -1.13190000      -0.71070000      -0.04410000
C       -1.25650000      -2.10500000       0.00340000
N       -2.61650000      -2.27950000       0.02480000
N       -3.26830000      -1.13450000      -0.00540000
N       -2.38230000      -0.16420000      -0.04390000
C       -0.34270000      -3.21670000       0.02610000
O       -0.69670000      -4.38140000       0.06940000
H        0.86460000       1.94910000      -0.17450000
H       -0.85510000       1.91830000      -0.61790000
H       -0.38850000       1.79010000       1.08520000
H        0.84860000      -0.36570000       0.14990000
H       -3.10480000      -3.16190000       0.06010000
H        0.73340000      -2.94120000      -0.00020000
