15
Properties=species:S:1:pos:R:3 gdb_133501=T pbc="F F F"
C       -0.47840000       1.81800000       0.23340000
C        0.15010000       0.43040000       0.08260000
C        1.02250000       0.09060000       1.31700000
N        1.69890000      -1.09080000       1.24920000
O        1.13540000       0.86370000       2.24460000
C       -0.92120000      -0.62720000      -0.16500000
F       -1.73000000      -0.28160000      -1.17470000
F       -0.38190000      -1.82510000      -0.50170000
F       -1.68390000      -0.83080000       0.91580000
H        0.30440000       2.55690000       0.40570000
H       -1.03730000       2.08500000      -0.66520000
H       -1.14970000       1.84300000       1.09410000
H        0.79640000       0.40320000      -0.80280000
H        1.45010000      -1.79340000       0.57430000
H        2.20030000      -1.37530000       2.07570000
