15
Properties=species:S:1:pos:R:3 gdb_57031=T pbc="F F F"
N       -0.14820000       1.55510000      -0.12710000
C       -0.02500000       0.10750000       0.01860000
C       -1.34410000      -0.47170000       0.33290000
N       -2.36220000      -0.96660000       0.56220000
C        0.59570000      -0.59460000      -1.21450000
C        0.42540000      -2.10580000      -1.47250000
O       -0.28130000      -1.81340000      -2.72610000
C       -0.20410000      -0.46710000      -2.51670000
O       -0.66180000       0.41490000      -3.17170000
H        0.77600000       1.97340000      -0.16410000
H       -0.61220000       1.77250000      -1.00580000
H        0.61410000      -0.08850000       0.88810000
H        1.62320000      -0.24040000      -1.33050000
H        1.33770000      -2.67170000      -1.66540000
H       -0.23270000      -2.63840000      -0.78440000
