20
Properties=species:S:1:pos:R:3 gdb_86995=T pbc="F F F"
O        0.03580000       1.52630000       0.04960000
C        0.08140000       0.12150000      -0.00860000
C        0.24160000      -0.59200000       1.35960000
N       -1.22720000      -0.76170000       1.39480000
C       -1.76700000      -1.96460000       1.98930000
C       -3.30700000      -1.93810000       1.99110000
C       -3.88560000      -3.13250000       2.59160000
C       -4.33430000      -4.12780000       3.09450000
C       -1.29980000      -0.58200000      -0.07370000
H       -0.59460000       1.76530000       0.73910000
H        0.80210000      -0.13150000      -0.78640000
H        0.78930000      -1.54470000       1.27070000
H        0.66670000      -0.00560000       2.18150000
H       -1.42090000      -2.87800000       1.46830000
H       -1.40880000      -2.03070000       3.02260000
H       -3.64170000      -1.04170000       2.52640000
H       -3.66890000      -1.83440000       0.95980000
H       -4.74370000      -5.00220000       3.53600000
H       -2.14100000       0.01670000      -0.43910000
H       -1.26000000      -1.53300000      -0.63120000
