21
Properties=species:S:1:pos:R:3 gdb_53511=T pbc="F F F"
C        0.12160000       1.51670000       0.00500000
C        0.07170000       0.06140000      -0.01760000
C        0.04110000      -1.14250000      -0.03670000
C       -0.01830000      -2.59990000      -0.04820000
C       -1.45950000      -3.16510000      -0.04300000
C       -2.24140000      -2.74070000      -1.28850000
C       -1.39860000      -4.70550000       0.09910000
C       -2.70550000      -5.33060000       0.25950000
C       -3.79050000      -5.82910000       0.40060000
H        0.91770000       1.87790000       0.66560000
H        0.30990000       1.92630000      -0.99370000
H       -0.82220000       1.94240000       0.36370000
H        0.51120000      -2.98460000      -0.93200000
H        0.52440000      -2.99170000       0.82280000
H       -1.96940000      -2.76910000       0.84320000
H       -1.76070000      -3.12200000      -2.19810000
H       -3.26190000      -3.13100000      -1.25880000
H       -2.28510000      -1.65130000      -1.36370000
H       -0.89760000      -5.12820000      -0.78330000
H       -0.76930000      -4.96610000       0.96030000
H       -4.74440000      -6.27840000       0.52380000
