19
Properties=species:S:1:pos:R:3 gdb_113742=T pbc="F F F"
C        0.25820000       0.97170000       0.25470000
O       -0.15200000      -0.10110000      -0.58310000
C       -1.39400000      -0.61440000      -0.23040000
C       -1.71100000      -1.98910000      -0.72210000
C       -1.48760000      -1.75680000       0.76070000
C       -0.22550000      -2.29630000       1.41000000
O        0.16860000      -1.52310000       2.54750000
C       -0.37170000      -3.71240000       1.76340000
C       -0.52280000      -4.85980000       2.08930000
H        1.23000000       1.30720000      -0.11440000
H       -0.45160000       1.81060000       0.19700000
H        0.34920000       0.64760000       1.29790000
H       -2.19560000       0.12610000      -0.20800000
H       -2.71140000      -2.20850000      -1.07630000
H       -0.91820000      -2.49720000      -1.26120000
H       -2.36530000      -1.78780000       1.40180000
H        0.59980000      -2.17970000       0.69990000
H       -0.45340000      -1.71550000       3.25810000
H       -0.63760000      -5.87860000       2.36650000
