23
Properties=species:S:1:pos:R:3 gdb_83757=T pbc="F F F"
C       -0.28150000       1.56390000       0.00120000
C        0.04780000       0.07330000       0.01150000
C        1.07450000      -0.55840000      -0.99530000
C        2.23480000       0.39190000      -1.33030000
C        2.92290000       0.65810000       0.03850000
C        2.34660000      -0.42020000       0.95480000
C        1.58790000      -1.45290000       0.16760000
C        0.84190000      -0.56910000       1.16010000
C        0.25930000      -0.91740000       2.50170000
H        0.60740000       2.19300000       0.09310000
H       -0.79640000       1.84590000      -0.92460000
H       -0.94870000       1.81480000       0.83380000
H       -0.89090000      -0.48840000      -0.08090000
H        0.63360000      -1.04540000      -1.86600000
H        2.93050000      -0.10280000      -2.01710000
H        1.89540000       1.31000000      -1.82020000
H        4.01050000       0.55230000      -0.03430000
H        2.73200000       1.66920000       0.41230000
H        2.94120000      -0.75590000       1.79890000
H        1.76500000      -2.52090000       0.16810000
H        0.92900000      -1.57180000       3.07000000
H        0.08290000      -0.02150000       3.10980000
H       -0.70050000      -1.43720000       2.39310000
