21
Properties=species:S:1:pos:R:3 gdb_57103=T pbc="F F F"
N       -0.14510000       1.53360000      -0.01510000
C       -0.03530000       0.07020000      -0.02200000
C       -1.38310000      -0.49850000       0.15530000
N       -2.43690000      -0.96140000       0.25680000
C        0.64950000      -0.56140000      -1.25500000
C        2.10290000      -0.06510000      -1.45940000
C        2.86200000      -1.23430000      -2.15370000
C        1.83340000      -2.38240000      -2.29370000
C        0.78700000      -2.09380000      -1.20800000
H        0.78580000       1.93480000      -0.07290000
H       -0.65210000       1.84470000      -0.83940000
H        0.54630000      -0.21100000       0.86730000
H        0.05060000      -0.29510000      -2.13680000
H        2.14180000       0.85930000      -2.04150000
H        2.56030000       0.15670000      -0.48690000
H        3.27420000      -0.93790000      -3.12170000
H        3.70910000      -1.55070000      -1.53800000
H        1.35480000      -2.34310000      -3.27910000
H        2.28790000      -3.37210000      -2.19820000
H        1.16860000      -2.39920000      -0.22360000
H       -0.16170000      -2.61250000      -1.36500000
