16
Properties=species:S:1:pos:R:3 gdb_5586=T pbc="F F F"
C        0.04160000       1.43370000      -0.00890000
O        0.02540000       0.01240000       0.00960000
C        0.60450000      -0.59610000      -1.04950000
C        0.69080000      -1.96030000      -1.21200000
C        0.22770000      -3.09720000      -0.37040000
N        1.35420000      -2.09640000      -2.42430000
C        1.61910000      -0.85460000      -2.90290000
N        1.17520000       0.08270000      -2.08890000
H        1.06590000       1.82090000      -0.02700000
H       -0.48960000       1.82750000      -0.88200000
H       -0.46060000       1.74990000       0.90740000
H       -0.49850000      -3.73690000      -0.88860000
H        1.05340000      -3.73980000      -0.03840000
H       -0.26040000      -2.69880000       0.52180000
H        1.59390000      -2.96830000      -2.86520000
H        2.13170000      -0.68750000      -3.83790000
