18
Properties=species:S:1:pos:R:3 gdb_36914=T pbc="F F F"
C       -0.03580000       1.52250000       0.30790000
C       -0.10000000       0.01420000       0.30940000
C       -1.29660000      -0.71720000      -0.12060000
O       -0.15960000      -0.60940000      -0.97900000
C        1.34260000       2.05120000      -0.08060000
C        1.48320000       3.59730000      -0.04210000
N        2.46280000       3.87320000       1.02400000
C        2.83530000       2.73920000       1.44580000
O        2.32230000       1.60780000       0.90680000
H       -0.76980000       1.91430000      -0.40590000
H       -0.29970000       1.90840000       1.30100000
H        0.57880000      -0.47780000       1.00580000
H       -1.49460000      -1.71350000       0.27200000
H       -2.17840000      -0.16260000      -0.44050000
H        1.64550000       1.62180000      -1.03940000
H        1.84320000       4.00990000      -0.99000000
H        0.53250000       4.09160000       0.18830000
H        3.56190000       2.56910000       2.23280000
