14
Properties=species:S:1:pos:R:3 gdb_51992=T pbc="F F F"
N       -0.15720000       1.12420000       0.00480000
C       -0.13240000      -0.12040000       0.15900000
O       -1.22320000      -0.83910000      -0.29140000
C       -1.22130000      -2.19030000      -0.11360000
O       -0.34570000      -2.82710000       0.39810000
C       -2.53220000      -2.75930000      -0.63640000
O       -2.46670000      -4.16080000      -0.78930000
C       -2.52480000      -4.90860000       0.34240000
O       -2.42410000      -6.09420000       0.32270000
H        0.69820000       1.53910000       0.37200000
H        0.63490000      -0.75340000       0.60390000
H       -3.33610000      -2.45200000       0.04700000
H       -2.75550000      -2.33470000      -1.61660000
H       -2.69720000      -4.30200000       1.25080000
