21
Properties=species:S:1:pos:R:3 gdb_107302=T pbc="F F F"
C       -0.07890000       1.44230000       0.05770000
C       -0.06480000      -0.05100000      -0.02740000
C       -0.00520000      -0.80250000      -1.13340000
C        0.06820000      -2.25880000      -0.82600000
C        1.28840000      -2.70420000      -0.04150000
C        0.02410000      -2.35370000       0.69890000
C       -0.74510000      -3.44510000       1.40200000
O       -2.13790000      -3.17390000       1.48820000
C       -0.10990000      -0.91960000       1.21910000
H        0.79510000       1.82100000       0.60330000
H       -0.08150000       1.90240000      -0.93440000
H       -0.96200000       1.79990000       0.60310000
H        0.02670000      -0.41350000      -2.14570000
H       -0.42530000      -2.98370000      -1.46690000
H        1.55600000      -3.75600000      -0.08560000
H        2.13320000      -2.02420000       0.00800000
H       -0.55600000      -4.40950000       0.90360000
H       -0.40780000      -3.54740000       2.44030000
H       -2.45100000      -3.01080000       0.59180000
H        0.68460000      -0.65670000       1.93040000
H       -1.06210000      -0.79720000       1.75280000
