23
Properties=species:S:1:pos:R:3 gdb_92131=T pbc="F F F"
C        0.34490000       1.56990000       0.02070000
C       -0.01960000       0.07890000       0.00420000
C        0.43380000      -0.61740000      -1.31550000
C        1.25640000      -1.88820000      -1.03810000
C        0.46270000      -2.82250000      -0.09580000
C        0.63120000      -2.14610000       1.25840000
C        1.89980000      -1.31170000       1.19180000
C        2.49550000      -1.51110000      -0.19430000
C        0.54540000      -0.63820000       1.22800000
H        1.43140000       1.70730000      -0.02090000
H       -0.09200000       2.09230000      -0.83730000
H       -0.01820000       2.05960000       0.93120000
H       -1.11360000       0.01090000       0.07120000
H       -0.43930000      -0.86910000      -1.92780000
H        1.03930000       0.07520000      -1.91270000
H        1.52500000      -2.37350000      -1.98040000
H       -0.58370000      -2.92860000      -0.40600000
H        0.90290000      -3.82670000      -0.07380000
H        0.34710000      -2.67560000       2.16100000
H        2.55780000      -1.21820000       2.04860000
H        3.22470000      -2.33040000      -0.17440000
H        3.00760000      -0.62530000      -0.58770000
H        0.28790000      -0.16830000       2.17420000
