20
Properties=species:S:1:pos:R:3 gdb_126613=T pbc="F F F"
C        0.01020000       1.51140000      -0.05550000
C        0.17160000      -0.01010000      -0.06870000
C        0.59990000      -0.55320000       1.29830000
N        0.72690000      -1.99940000       1.31330000
C        1.83060000      -2.76780000       1.39000000
N        1.51380000      -4.04740000       1.34010000
C        0.15230000      -4.01730000       1.22570000
C       -0.68700000      -5.24740000       1.13710000
N       -0.36710000      -2.79610000       1.20480000
H        0.94870000       2.01270000       0.20700000
H       -0.29870000       1.87990000      -1.03760000
H       -0.74780000       1.82500000       0.67050000
H       -0.76940000      -0.49330000      -0.34950000
H        0.91550000      -0.30750000      -0.81730000
H        1.57040000      -0.14140000       1.59370000
H       -0.12890000      -0.26940000       2.06480000
H        2.82430000      -2.35470000       1.48470000
H       -0.55200000      -5.87340000       2.02480000
H       -1.74120000      -4.97920000       1.04960000
H       -0.39990000      -5.85000000       0.26960000
