22
Properties=species:S:1:pos:R:3 gdb_81854=T pbc="F F F"
C       -0.07280000       1.56940000      -0.01580000
C        0.02060000       0.03640000       0.00170000
C        0.81460000      -0.53930000      -1.17120000
N        2.22900000      -0.09300000      -1.21760000
C        1.88000000      -1.43070000      -0.64360000
C        2.36850000      -2.68750000      -1.31470000
C        1.74610000      -1.35510000       0.84510000
C        0.75290000      -0.54000000       1.21480000
C        0.36220000      -0.17840000       2.61290000
H        0.92950000       2.00460000      -0.04150000
H       -0.61800000       1.91270000      -0.90120000
H       -0.60000000       1.95040000       0.86450000
H       -1.00220000      -0.37060000      -0.02360000
H        0.30990000      -0.74550000      -2.11030000
H        2.56620000      -0.22980000      -2.17060000
H        2.28010000      -2.61470000      -2.40390000
H        3.42140000      -2.87970000      -1.07650000
H        1.79080000      -3.55870000      -0.98730000
H        2.40630000      -1.88470000       1.52430000
H        0.94420000      -0.74070000       3.34810000
H        0.51580000       0.88980000       2.80970000
H       -0.70230000      -0.37800000       2.79350000
