21
Properties=species:S:1:pos:R:3 gdb_120961=T pbc="F F F"
C       -0.07440000       1.56490000      -0.10700000
C       -0.04560000       0.03450000      -0.10170000
C        0.71980000      -0.54610000      -1.29540000
C        0.76180000      -2.05920000      -1.28820000
O       -0.54980000      -2.60220000      -1.42160000
C       -0.39050000      -3.84290000      -2.06730000
C       -0.28400000      -3.78790000      -3.57550000
C        0.95740000      -3.80560000      -2.71100000
O        1.50410000      -2.54550000      -2.40240000
H        0.93830000       1.98180000      -0.06930000
H       -0.55510000       1.94840000      -1.01380000
H       -0.62750000       1.95460000       0.75300000
H        0.41230000      -0.32030000       0.83120000
H       -1.06770000      -0.35920000      -0.11060000
H        0.26260000      -0.22880000      -2.23960000
H        1.75520000      -0.18490000      -1.29830000
H        1.21550000      -2.44450000      -0.35620000
H       -0.80780000      -4.69750000      -1.54610000
H       -0.52440000      -4.68950000      -4.13050000
H       -0.53920000      -2.85080000      -4.05620000
H        1.66270000      -4.62930000      -2.72570000
