16
Properties=species:S:1:pos:R:3 gdb_33289=T pbc="F F F"
N        0.05460000      -3.68300000      -0.01790000
C        0.03740000      -2.52090000      -0.01190000
C        0.01790000      -1.15750000      -0.00440000
C        0.00060000       0.05260000       0.00230000
C       -0.02020000       1.48200000       0.01040000
C       -0.64360000       2.41990000       1.10060000
C       -0.04750000       3.36860000       0.02140000
C        1.21010000       2.45310000       0.00140000
C       -0.66880000       2.43210000      -1.05440000
H       -1.73190000       2.39010000       1.19020000
H       -0.15440000       2.40770000       2.07720000
H       -0.06320000       4.45680000       0.02790000
H        1.83270000       2.44340000       0.89880000
H        1.81110000       2.45360000      -0.91080000
H       -0.20240000       2.43120000      -2.04230000
H       -1.75880000       2.40330000      -1.11900000
