18
Properties=species:S:1:pos:R:3 gdb_47606=T pbc="F F F"
O        0.00720000      -0.04960000       0.16120000
C       -0.02880000       1.16090000       0.06250000
N       -1.19710000       1.86580000      -0.01340000
C       -1.32570000       3.31780000      -0.05790000
C       -0.20260000       3.96390000       0.75610000
C        1.15580000       3.52950000       0.20500000
C        2.26640000       3.27440000       1.24430000
O        2.08990000       1.84390000       1.14320000
C        1.24360000       2.00090000      -0.01750000
H       -2.03100000       1.29670000      -0.01130000
H       -1.30470000       3.68770000      -1.09440000
H       -2.30250000       3.58690000       0.35510000
H       -0.30380000       5.05380000       0.74060000
H       -0.30370000       3.63730000       1.79760000
H        1.44120000       4.13590000      -0.65770000
H        3.27080000       3.58240000       0.92520000
H        2.08390000       3.64030000       2.26150000
H        1.77390000       1.70650000      -0.93410000
