18
Properties=species:S:1:pos:R:3 gdb_24149=T pbc="F F F"
C        0.03940000       1.37380000       0.46520000
C       -0.07080000      -0.08840000       0.07660000
C       -1.38720000      -0.68860000      -0.24250000
N       -0.38980000      -0.47280000      -1.31040000
C        1.39150000       1.96530000       0.18250000
C        2.16380000       2.68960000       1.03660000
O        3.32510000       3.07380000       0.44200000
C        3.29700000       2.57860000      -0.82290000
C        2.14620000       1.89450000      -1.04260000
H       -0.74220000       1.93300000      -0.07060000
H       -0.18530000       1.48560000       1.53320000
H        0.68540000      -0.72870000       0.52680000
H       -1.58800000      -1.72960000      -0.00670000
H       -2.26130000      -0.04230000      -0.21070000
H       -0.64740000       0.35750000      -1.84030000
H        2.03250000       3.00660000       2.05850000
H        4.16140000       2.79480000      -1.42890000
H        1.86700000       1.38030000      -1.94890000
