16
Properties=species:S:1:pos:R:3 gdb_100231=T pbc="F F F"
N       -0.05100000       1.50370000       0.02950000
C        0.00660000       0.04600000      -0.01790000
C        0.75870000      -0.49490000      -1.27270000
O        0.20320000       0.02060000      -2.45870000
C        0.69380000      -0.49980000       1.25800000
C        0.08010000      -0.04860000       2.50420000
N       -0.38160000       0.28790000       3.50740000
C       -1.37680000      -0.47060000      -0.10970000
N       -2.43030000      -0.91570000      -0.27410000
H        0.87820000       1.87370000       0.21180000
H       -0.32950000       1.84290000      -0.88810000
H        1.79150000      -0.13190000      -1.22770000
H        0.77700000      -1.59440000      -1.26540000
H       -0.64170000      -0.41870000      -2.61450000
H        0.69420000      -1.59430000       1.23800000
H        1.74240000      -0.17860000       1.24630000
