19
Properties=species:S:1:pos:R:3 gdb_41708=T pbc="F F F"
C        0.20020000       1.26130000      -0.37120000
C        1.47030000       1.88530000       0.26480000
C        2.09100000       0.72350000       1.02620000
C        2.32050000      -0.55830000       0.24420000
C        3.02900000      -1.71460000       0.95200000
C        2.08440000      -2.10180000       2.07700000
C        0.97000000      -1.36640000       2.07880000
C        1.01810000      -0.33890000       1.01430000
O       -0.15580000       0.13010000       0.42490000
H       -0.65610000       1.94020000      -0.39530000
H        0.40640000       0.93740000      -1.40060000
H        2.12060000       2.32500000      -0.49820000
H        1.20450000       2.67660000       0.97310000
H        2.67490000       0.92760000       1.91830000
H        2.36420000      -0.50260000      -0.83820000
H        3.20330000      -2.55600000       0.26900000
H        4.01580000      -1.42610000       1.33890000
H        2.33380000      -2.86180000       2.80830000
H        0.14430000      -1.44290000       2.77540000
