21
Properties=species:S:1:pos:R:3 gdb_121429=T pbc="F F F"
C       -1.56700000       2.04570000      -0.73070000
C       -1.35850000       0.54050000      -0.91010000
C       -2.20700000      -0.29200000       0.06220000
N       -2.06730000      -1.70260000      -0.22230000
C       -1.61110000      -2.54730000       0.61130000
C       -1.13760000      -2.35120000       2.02770000
N       -1.55210000      -3.86690000       0.10840000
C       -1.13330000      -5.03300000       0.69380000
O       -0.70560000      -5.17480000       1.81690000
H       -0.95180000       2.61650000      -1.43260000
H       -2.61260000       2.32490000      -0.90200000
H       -1.30080000       2.36910000       0.28200000
H       -1.60810000       0.23920000      -1.93350000
H       -0.30160000       0.28640000      -0.76240000
H       -1.95700000      -0.00710000       1.09490000
H       -3.26400000      -0.03010000      -0.08560000
H       -1.73010000      -2.95980000       2.71480000
H       -0.10680000      -2.69580000       2.13520000
H       -1.20380000      -1.30500000       2.32170000
H       -1.88560000      -3.92190000      -0.84500000
H       -1.23670000      -5.87640000      -0.01730000
