21
Properties=species:S:1:pos:R:3 gdb_55777=T pbc="F F F"
C        0.55900000       0.56880000       0.74750000
C       -0.06090000       0.00090000      -0.51460000
O        0.47220000       0.08560000      -1.59600000
C       -1.39680000      -0.73600000      -0.33830000
C       -1.13770000      -2.19380000      -0.06630000
C       -1.35300000      -2.84900000       1.07750000
C       -1.00540000      -4.31450000       0.97840000
C       -0.20880000      -4.39350000      -0.35080000
C       -0.59990000      -3.12000000      -1.14000000
H        1.56640000       0.93260000       0.54260000
H       -0.05800000       1.39450000       1.12180000
H        0.58230000      -0.19370000       1.53300000
H       -1.96930000      -0.29430000       0.48350000
H       -1.95820000      -0.61610000      -1.27140000
H       -1.77940000      -2.40590000       1.97210000
H       -0.42680000      -4.67710000       1.83580000
H       -1.91840000      -4.92680000       0.94710000
H        0.86330000      -4.36830000      -0.13130000
H       -0.40160000      -5.31400000      -0.90720000
H       -1.38560000      -3.32080000      -1.88320000
H        0.23660000      -2.68360000      -1.69470000
