15
Properties=species:S:1:pos:R:3 gdb_35450=T pbc="F F F"
C       -0.03140000      -1.28770000       0.03420000
C        0.00170000      -0.08630000       0.01000000
C        0.04350000       1.36150000       0.01620000
C       -0.16960000       2.13580000       1.35870000
N        1.14130000       2.86360000       1.23450000
C        2.17610000       1.82420000       1.23230000
C        1.42690000       2.04850000      -0.02680000
C        2.01150000       2.59970000      -1.21060000
N        2.46660000       3.01920000      -2.18800000
H       -0.06180000      -2.34950000       0.04080000
H       -0.60520000       1.76800000      -0.76320000
H       -0.99920000       2.84150000       1.31970000
H       -0.24300000       1.52290000       2.26020000
H        3.18270000       2.22510000       1.28130000
H        2.01240000       0.89660000       1.77640000
