20
Properties=species:S:1:pos:R:3 gdb_23318=T pbc="F F F"
O       -0.02980000       1.33680000      -0.19870000
N        0.05400000      -0.06790000      -0.15970000
C       -1.08280000      -0.62370000       0.01480000
C       -2.42130000       0.05280000       0.13590000
C       -3.33030000      -0.33820000      -1.05330000
C       -3.26740000      -1.82510000      -1.40900000
C       -2.17030000      -2.34110000      -2.31260000
C       -2.16860000      -2.71270000      -0.85430000
C       -1.11670000      -2.12810000       0.08150000
H        0.89240000       1.58500000      -0.31820000
H       -2.88790000      -0.29640000       1.06650000
H       -2.31020000       1.13470000       0.19970000
H       -4.36120000      -0.06300000      -0.80890000
H       -3.05030000       0.26400000      -1.92500000
H       -4.23510000      -2.30100000      -1.53280000
H       -2.41130000      -3.10390000      -3.04490000
H       -1.42520000      -1.62320000      -2.64490000
H       -2.44800000      -3.73550000      -0.61880000
H       -0.12250000      -2.52990000      -0.13550000
H       -1.36800000      -2.41660000       1.11270000
