18
Properties=species:S:1:pos:R:3 gdb_47794=T pbc="F F F"
N        0.00420000       1.18800000       0.71350000
C        0.05670000       0.06380000       0.13170000
O        1.26490000      -0.55470000      -0.12770000
C        1.58060000      -0.90690000      -1.46720000
O        0.95610000      -2.06080000      -1.92710000
C       -0.36020000      -1.87050000      -2.42200000
C       -1.39920000      -1.61470000      -1.35180000
C       -1.26740000      -2.18870000       0.02280000
C       -1.19040000      -0.67980000      -0.17110000
H        0.95250000       1.53510000       0.87150000
H        1.36150000      -0.05420000      -2.12980000
H        2.65180000      -1.11380000      -1.45120000
H       -0.36570000      -1.05030000      -3.15800000
H       -0.60820000      -2.79500000      -2.95400000
H       -2.40320000      -1.56900000      -1.76700000
H       -2.14230000      -2.58720000       0.52300000
H       -0.33320000      -2.68710000       0.25270000
H       -2.05840000      -0.10660000       0.13030000
