23
Properties=species:S:1:pos:R:3 gdb_119268=T pbc="F F F"
C       -0.20310000       0.95560000       3.65480000
C       -0.23650000      -0.41310000       2.99540000
O        0.49080000      -0.32850000       1.77580000
C        0.71270000      -1.54310000       1.11510000
C       -0.51160000      -2.04580000       0.37010000
O       -0.19020000      -3.23080000      -0.32280000
C       -1.27610000      -3.75680000      -1.04660000
C        2.06680000      -1.68480000       0.49460000
C        1.69820000      -2.51350000       1.71180000
H       -0.65180000       1.70830000       3.00030000
H       -0.75950000       0.93870000       4.59690000
H        0.82770000       1.25600000       3.86330000
H        0.21410000      -1.17290000       3.65080000
H       -1.27740000      -0.71890000       2.81070000
H       -1.34010000      -2.23350000       1.07470000
H       -0.84940000      -1.26150000      -0.32860000
H       -1.63910000      -3.04970000      -1.80890000
H       -0.92860000      -4.66550000      -1.54390000
H       -2.12060000      -4.01220000      -0.38710000
H        2.13340000      -2.19080000      -0.46070000
H        2.75000000      -0.85630000       0.64090000
H        2.15330000      -2.24080000       2.65750000
H        1.51880000      -3.57210000       1.56780000
