20
Properties=species:S:1:pos:R:3 gdb_36289=T pbc="F F F"
N        0.01550000      -1.15140000      -0.05560000
C       -0.00500000      -0.00410000       0.08220000
C       -0.00490000       1.44940000       0.25140000
C        1.39890000       2.04690000       0.08290000
C        1.99960000       2.08830000      -1.35900000
C        1.17430000       3.39040000      -1.58030000
C        1.48020000       3.60020000      -0.06760000
C        3.00750000       3.81310000      -0.08920000
C        3.40370000       2.65830000      -1.07500000
H       -0.72050000       1.87540000      -0.45820000
H       -0.38730000       1.67810000       1.25350000
H        2.05270000       1.61250000       0.84710000
H        1.92810000       1.23230000      -2.03030000
H        1.57180000       4.12860000      -2.28270000
H        0.12090000       3.21610000      -1.80200000
H        0.88720000       4.26860000       0.55870000
H        3.27900000       4.80270000      -0.46660000
H        3.45810000       3.69550000       0.90040000
H        4.06570000       1.92010000      -0.61410000
H        3.89010000       3.02650000      -1.98220000
