15
Properties=species:S:1:pos:R:3 gdb_18554=T pbc="F F F"
N       -0.16360000       1.24230000      -0.46230000
C       -0.07390000       0.06360000      -0.05120000
O        1.00390000      -0.63240000       0.46960000
C        0.20710000      -1.85160000       0.64630000
C       -0.16040000      -2.12330000       2.09780000
C       -1.32150000      -1.13810000       2.33800000
O       -2.00770000      -1.05360000       1.08570000
C       -1.03790000      -1.12200000       0.07300000
H        0.72470000       1.74010000      -0.37350000
H        0.65310000      -2.68280000       0.10080000
H       -0.50730000      -3.15730000       2.19200000
H        0.68230000      -1.97310000       2.77610000
H       -2.04130000      -1.47340000       3.08680000
H       -0.94100000      -0.15050000       2.63380000
H       -1.50450000      -1.45840000      -0.85250000
