13
Properties=species:S:1:pos:R:3 gdb_130714=T pbc="F F F"
O       -0.09950000      -0.06660000       0.00500000
C       -0.00410000       1.14690000       0.00940000
N       -1.15260000       1.95510000       0.02950000
N       -1.23360000       3.28850000       0.03680000
C       -0.11090000       3.94210000       0.02390000
C        1.17720000       3.29380000       0.00260000
C        1.21990000       1.92860000      -0.00440000
C        2.35310000       4.09450000      -0.01040000
C        3.33250000       4.79390000      -0.02120000
H       -2.04010000       1.46870000       0.03980000
H       -0.18230000       5.02270000       0.03000000
H        2.15410000       1.38180000      -0.02020000
H        4.20350000       5.40260000      -0.03100000
