20
Properties=species:S:1:pos:R:3 gdb_100736=T pbc="F F F"
C       -0.07950000       1.48890000       0.27140000
N        0.04300000       0.04380000       0.08630000
H        0.50640000      -0.38410000       0.88310000
H       -1.32240000      -0.93910000      -0.24460000
C        0.73770000      -0.39660000      -1.14080000
C        2.21520000       0.00960000      -1.22080000
C        0.57790000      -1.91990000      -1.25490000
O        1.23190000      -2.49110000      -0.11990000
C       -0.87640000      -2.44610000      -1.29440000
O       -1.12150000      -3.50230000      -1.82470000
O       -1.79510000      -1.71670000      -0.66750000
H        0.88220000       2.01530000       0.34270000
H       -0.63930000       1.91410000      -0.56770000
H       -0.64480000       1.68510000       1.18630000
H        0.19500000       0.05080000      -1.98400000
H        2.64920000      -0.31860000      -2.17050000
H        2.33570000       1.09430000      -1.16090000
H        2.78400000      -0.45520000      -0.41120000
H        1.04910000      -2.26060000      -2.18590000
H        1.08510000      -3.44330000      -0.15300000
