20
Properties=species:S:1:pos:R:3 gdb_70471=T pbc="F F F"
C       -0.03340000       1.52120000       0.02990000
C        0.04070000       0.02130000       0.01080000
C       -0.84920000      -0.86110000       0.84770000
C        0.63780000      -0.98420000       1.01460000
C        1.19430000      -1.84470000      -0.12410000
C        0.63280000      -0.79190000      -1.13300000
O       -0.32130000      -1.23690000      -2.09320000
C        0.12440000      -1.52510000      -3.32900000
N       -0.65120000      -2.04020000      -4.18210000
H        0.92090000       1.97650000      -0.26000000
H       -0.80120000       1.88580000      -0.66280000
H       -0.28940000       1.89020000       1.02820000
H       -1.36940000      -0.33690000       1.64320000
H       -1.42060000      -1.66630000       0.39390000
H        1.13970000      -0.77620000       1.95120000
H        2.28400000      -1.91290000      -0.15530000
H        0.76830000      -2.84860000      -0.21280000
H        1.43890000      -0.25060000      -1.64300000
H        1.17900000      -1.25610000      -3.48790000
H       -0.15870000      -2.16630000      -5.06390000
