10
Properties=species:S:1:pos:R:3 gdb_23682=T pbc="F F F"
O        0.10890000       1.28900000      -0.08510000
C        0.06940000      -0.03710000      -0.04920000
N        0.00790000      -0.66090000      -1.22580000
C       -0.02910000      -1.98430000      -1.12160000
N       -0.01010000      -2.69730000       0.00890000
C        0.05250000      -1.93930000       1.08910000
F        0.07360000      -2.56780000       2.24010000
N        0.09490000      -0.62280000       1.15360000
H        0.15150000       1.59770000       0.83180000
H       -0.07990000      -2.54770000      -2.04970000
