12
Properties=species:S:1:pos:R:3 gdb_23660=T pbc="F F F"
N        0.01830000       1.36320000       0.15260000
C       -0.00090000      -0.00420000       0.05690000
C       -1.20460000      -0.73940000       0.03080000
N       -1.20860000      -2.06310000      -0.01440000
C       -0.03080000      -2.69230000      -0.03180000
C        1.14050000      -1.94380000      -0.00820000
F        2.31160000      -2.56930000      -0.03300000
N        1.18220000      -0.63210000       0.03110000
H        0.89980000       1.80080000      -0.06610000
H       -0.80300000       1.86870000      -0.13540000
H       -2.16590000      -0.23230000       0.04860000
H       -0.01280000      -3.77530000      -0.06730000
