13
Properties=species:S:1:pos:R:3 gdb_42547=T pbc="F F F"
O       -0.06450000       0.06210000       0.06060000
C       -0.10200000       1.24620000       0.05760000
C       -1.15150000       2.34160000      -0.09200000
C       -0.94590000       3.12370000       1.23940000
C        0.46320000       3.42980000       0.70300000
C        1.40910000       4.36320000       1.22980000
N        2.13440000       5.14470000       1.67600000
C        0.06140000       3.15290000      -0.69110000
N        1.02010000       2.20570000      -0.00630000
H       -2.13550000       2.16560000      -0.51450000
H       -1.54250000       4.03670000       1.27730000
H       -1.03770000       2.56530000       2.17470000
H        0.28240000       3.61180000      -1.64280000
