19
Properties=species:S:1:pos:R:3 gdb_76534=T pbc="F F F"
C       -0.08940000       1.55730000       0.38200000
C        0.04920000       0.06120000       0.19980000
N        1.27140000      -0.59030000      -0.27610000
C        2.45630000       0.18540000      -0.61280000
C        0.90190000      -0.75660000       1.10960000
C        1.63360000      -0.32210000       2.40340000
N        1.28920000      -1.64910000       2.92740000
C        0.59570000      -2.08420000       1.81270000
O       -0.01040000      -3.08960000       1.56530000
H        0.78920000       2.01340000       0.84370000
H       -0.26110000       2.05100000      -0.58060000
H       -0.95170000       1.77390000       1.02120000
H       -0.84820000      -0.42320000      -0.18410000
H        2.65770000       1.04380000       0.04510000
H        3.32700000      -0.47660000      -0.57980000
H        2.35510000       0.55650000      -1.63710000
H        2.71040000      -0.14850000       2.30620000
H        1.17450000       0.51210000       2.94510000
H        1.32510000      -2.01500000       3.86620000
