17
Properties=species:S:1:pos:R:3 gdb_94010=T pbc="F F F"
O       -0.60640000       1.38460000       0.80060000
C       -0.13670000       0.15560000       0.27210000
C        0.62560000      -0.69790000       1.27330000
O       -0.36950000      -1.40200000       2.02630000
C       -1.58780000      -1.46620000       1.30340000
C       -2.69000000      -0.73080000       2.06950000
O       -2.49760000       0.29770000       2.67210000
C       -1.33900000      -0.75890000      -0.07240000
O       -2.44310000      -0.04800000      -0.56880000
H       -1.01870000       1.20590000       1.66420000
H        0.45580000       0.40390000      -0.61150000
H        1.28880000      -1.40930000       0.75930000
H        1.22210000      -0.09670000       1.96460000
H       -1.88570000      -2.51450000       1.17400000
H       -3.69820000      -1.19040000       2.03420000
H       -1.05010000      -1.51010000      -0.81450000
H       -2.30910000       0.86590000      -0.26980000
