15
Properties=species:S:1:pos:R:3 gdb_133789=T pbc="F F F"
C        0.08560000       1.50590000      -0.18150000
C        0.02040000       0.00070000      -0.01840000
O        0.66690000      -0.58810000      -1.16660000
C        0.70910000      -1.91840000      -1.20650000
N        0.23060000      -2.68460000      -0.32340000
C        1.42670000      -2.36190000      -2.48610000
F        1.48190000      -3.69740000      -2.54960000
F        0.78700000      -1.92110000      -3.57250000
F        2.67670000      -1.89290000      -2.52240000
H        1.12250000       1.84900000      -0.23320000
H       -0.42920000       1.82310000      -1.09250000
H       -0.39600000       1.98910000       0.67360000
H        0.53420000      -0.34310000       0.88500000
H       -1.00880000      -0.36900000       0.02950000
H        0.38470000      -3.65900000      -0.57410000
