18
Properties=species:S:1:pos:R:3 gdb_46410=T pbc="F F F"
O        0.23170000       0.05660000      -0.08080000
C        0.07310000       1.23930000       0.01460000
C       -1.13500000       2.14210000       0.30490000
C       -0.11790000       3.26080000       0.68830000
C        1.04460000       2.44110000       0.05290000
N        2.24860000       2.26980000       0.83780000
C        3.23200000       1.39380000       0.18330000
C        4.47830000       1.34170000       0.93780000
C        5.51160000       1.32330000       1.55040000
H       -1.70710000       2.36120000      -0.60240000
H       -1.82460000       1.78540000       1.07280000
H       -0.29720000       4.25040000       0.26760000
H        0.01450000       3.33860000       1.76920000
H        1.22770000       2.77320000      -0.98960000
H        2.67580000       3.17480000       1.01180000
H        2.79170000       0.39340000       0.11070000
H        3.45440000       1.70950000      -0.85430000
H        6.42290000       1.29150000       2.09440000
