21
Properties=species:S:1:pos:R:3 gdb_58258=T pbc="F F F"
C       -0.26100000       0.79670000       1.31280000
C       -0.24470000       0.33370000      -0.13830000
O        0.94630000      -0.40090000      -0.45820000
C       -1.47210000      -0.49420000      -0.57380000
O       -1.30750000      -0.88420000      -1.92800000
C       -1.68960000      -1.73350000       0.27520000
O       -2.28650000      -1.57410000       1.56940000
C       -3.00560000      -2.31790000       0.57290000
C       -4.32780000      -1.76840000       0.10570000
H        0.62180000       1.40840000       1.51890000
H       -1.15400000       1.39350000       1.52070000
H       -0.27290000      -0.05200000       2.00400000
H       -0.20820000       1.20320000      -0.80470000
H        1.12360000      -1.00920000       0.26770000
H       -2.35780000       0.14660000      -0.52100000
H       -0.36610000      -1.08920000      -2.01840000
H       -0.84310000      -2.42620000       0.25950000
H       -3.01490000      -3.39220000       0.76960000
H       -4.28890000      -0.69010000      -0.05830000
H       -4.62780000      -2.25250000      -0.82940000
H       -5.10240000      -1.96850000       0.85330000
