19
Properties=species:S:1:pos:R:3 gdb_83496=T pbc="F F F"
O        0.09510000       1.37620000       0.18230000
C        0.01800000      -0.01710000      -0.00240000
C       -1.38040000      -0.59780000      -0.33870000
C       -1.63450000      -0.02170000      -1.75250000
C       -0.21180000      -0.03060000      -2.40350000
C        0.70530000      -0.58800000      -1.27300000
C        0.34400000      -2.06470000      -1.14690000
O        0.99300000      -3.01570000      -1.49560000
C       -1.04510000      -2.09520000      -0.47730000
H       -0.23560000       1.81810000      -0.60600000
H        0.42950000      -0.44930000       0.91520000
H       -2.16130000      -0.37110000       0.38850000
H       -2.35440000      -0.62240000      -2.31420000
H       -2.04590000       0.99140000      -1.69960000
H       -0.16020000      -0.64220000      -3.30710000
H        0.11480000       0.97470000      -2.68790000
H        1.76960000      -0.40140000      -1.40520000
H       -0.95540000      -2.59330000       0.49530000
H       -1.76080000      -2.66960000      -1.07290000
