21
Properties=species:S:1:pos:R:3 gdb_120277=T pbc="F F F"
C       -0.02110000       1.42820000      -0.04980000
O        0.10220000       0.02740000       0.00050000
C        0.52760000      -0.52980000      -1.22830000
C        0.63340000      -2.03290000      -1.06250000
C        1.18640000      -2.82390000      -2.25640000
O        2.55350000      -2.42880000      -2.44320000
C        2.25900000      -3.41070000      -1.44020000
C        1.79790000      -2.65760000      -0.18010000
C        2.80910000      -1.74570000       0.50060000
H        0.93630000       1.91580000      -0.29280000
H       -0.76480000       1.74590000      -0.79830000
H       -0.34850000       1.76520000       0.93690000
H       -0.19880000      -0.29270000      -2.02650000
H        1.49520000      -0.10570000      -1.53470000
H       -0.33370000      -2.42790000      -0.73740000
H        0.66330000      -3.21080000      -3.12380000
H        2.76610000      -4.36530000      -1.52600000
H        1.36000000      -3.35260000       0.54300000
H        3.34830000      -1.14570000      -0.23740000
H        2.30890000      -1.06710000       1.19640000
H        3.54610000      -2.33280000       1.05950000
