16
Properties=species:S:1:pos:R:3 gdb_17249=T pbc="F F F"
O        0.12440000       1.32020000      -0.39810000
C       -0.03970000       0.03280000       0.18350000
C       -1.45010000      -0.46870000       0.12840000
C       -2.65800000      -0.04490000       0.97580000
C       -3.36270000      -1.27340000       0.34880000
O       -3.50110000      -0.90850000      -1.05430000
C       -2.08580000      -1.06470000      -1.14290000
C       -1.95120000      -1.91600000       0.07230000
H       -0.45510000       1.92950000       0.07030000
H        0.61350000      -0.63510000      -0.39030000
H        0.32510000       0.01920000       1.22370000
H       -2.46210000      -0.18700000       2.04260000
H       -3.13310000       0.92520000       0.79440000
H       -4.25180000      -1.73720000       0.76990000
H       -1.61150000      -1.08350000      -2.11500000
H       -1.48600000      -2.86860000       0.28550000
