16
Properties=species:S:1:pos:R:3 gdb_133773=T pbc="F F F"
O       -0.18250000       1.45720000      -0.50890000
C        0.02490000       0.15080000       0.01270000
C       -1.32910000      -0.51030000       0.09070000
C       -1.91860000      -1.24200000      -1.08520000
C       -1.52320000      -2.00730000       0.15320000
C       -0.38500000      -2.98410000       0.12680000
F        0.49200000      -2.75230000      -0.86830000
F        0.31310000      -2.96430000       1.27690000
F       -0.83870000      -4.23800000      -0.03380000
H        0.66500000       1.91190000      -0.51520000
H        0.70180000      -0.43290000      -0.62360000
H        0.47050000       0.19170000       1.01920000
H       -2.03040000       0.05250000       0.70020000
H       -2.97490000      -1.13560000      -1.30140000
H       -1.28590000      -1.36410000      -1.95690000
H       -2.31430000      -2.36510000       0.80330000
