19
Properties=species:S:1:pos:R:3 gdb_30164=T pbc="F F F"
C        0.21680000       1.46960000       0.05970000
C       -0.04120000      -0.03680000      -0.03390000
C        0.67960000      -0.66710000      -1.28320000
C        1.88570000      -1.24100000      -0.61810000
C        1.74820000      -1.28010000       0.74140000
N        0.49760000      -0.76570000       1.15980000
C        2.87610000      -1.94180000       1.29220000
C        3.66960000      -2.29180000       0.21210000
N        3.05490000      -1.88070000      -0.94940000
H        1.29290000       1.67140000       0.09430000
H       -0.20470000       1.99450000      -0.80450000
H       -0.24310000       1.89180000       0.96030000
H       -1.12000000      -0.21200000      -0.09510000
H        0.04800000      -1.43350000      -1.75430000
H        0.87770000       0.09710000      -2.04510000
H        0.55400000      -0.15390000       1.96710000
H        3.09970000      -2.14330000       2.32820000
H        4.62840000      -2.78430000       0.18260000
H        3.43230000      -1.99810000      -1.87230000
