15
Properties=species:S:1:pos:R:3 gdb_124432=T pbc="F F F"
C        0.03020000       1.52470000      -0.09410000
C       -0.00280000      -0.00500000       0.07370000
C        0.70420000      -0.41460000       1.29820000
N        1.26980000      -0.70320000       2.26250000
N       -1.36250000      -0.53590000       0.06780000
C       -2.31890000      -0.45700000       1.04690000
N       -3.44350000      -0.97980000       0.63680000
N       -3.24480000      -1.42020000      -0.65890000
C       -2.00790000      -1.14820000      -0.97410000
H        1.06410000       1.87590000      -0.13000000
H       -0.47370000       1.79750000      -1.02410000
H       -0.47690000       2.01490000       0.73980000
H        0.51560000      -0.47000000      -0.77150000
H       -2.13160000      -0.03370000       2.02150000
H       -1.52700000      -1.36630000      -1.91570000
