16
Properties=species:S:1:pos:R:3 gdb_69154=T pbc="F F F"
O       -0.08040000       1.37820000       0.03290000
C        0.00270000      -0.00740000       0.03490000
C       -0.53690000      -0.75400000       1.19410000
C        0.97520000      -0.79680000       0.90720000
C        1.58380000      -1.87430000       0.05330000
O        2.56720000      -2.52130000       0.32190000
C        0.90120000      -1.86800000      -1.30590000
N       -0.57110000      -2.09500000      -1.25210000
C       -0.04650000      -0.72420000      -1.32170000
H        0.71920000       1.73180000      -0.37320000
H       -0.79040000      -0.15700000       2.06300000
H       -1.13910000      -1.63540000       1.02270000
H        1.62160000      -0.33050000       1.64100000
H        1.46500000      -2.21980000      -2.16240000
H       -0.88090000      -2.39240000      -2.17510000
H       -0.22690000      -0.11700000      -2.20220000
