11
Properties=species:S:1:pos:R:3 gdb_4331=T pbc="F F F"
O        0.00370000       1.28880000       0.00790000
C       -0.02960000      -0.03910000       0.00060000
N       -1.17730000      -0.62200000       0.00390000
C       -1.20950000      -1.98580000      -0.00290000
N       -2.24670000      -2.69700000      -0.00120000
O        0.08320000      -2.66030000      -0.01360000
C        1.17640000      -1.92050000      -0.01570000
N        1.22790000      -0.63810000      -0.00930000
H        0.93550000       1.54880000       0.00430000
H       -2.01340000      -3.68790000      -0.00770000
H        2.08610000      -2.51700000      -0.02380000
