21
Properties=species:S:1:pos:R:3 gdb_38885=T pbc="F F F"
C       -0.00680000       1.58190000      -0.00880000
C        1.27900000       0.78720000      -0.04200000
C        2.21360000       0.76520000       1.17640000
C        2.09170000      -0.57540000       1.91040000
C        2.25620000      -0.69030000       3.46270000
C        0.89410000      -1.46220000       3.52430000
C        0.64570000      -0.98360000       2.10880000
C       -0.36750000      -0.63800000       1.32410000
C       -0.05460000       0.06790000       0.04890000
H       -0.23000000       2.12400000       0.90510000
H       -0.34130000       2.07450000      -0.91630000
H        1.77720000       0.73230000      -1.00480000
H        3.24380000       0.96760000       0.86380000
H        1.93560000       1.56610000       1.87160000
H        2.67510000      -1.35170000       1.39890000
H        3.13940000      -1.21420000       3.83490000
H        2.19270000       0.28690000       3.94940000
H        1.04090000      -2.54650000       3.58900000
H        0.17480000      -1.16870000       4.29410000
H       -1.40650000      -0.82090000       1.59030000
H       -0.40360000      -0.41940000      -0.85880000
