17
Properties=species:S:1:pos:R:3 gdb_32012=T pbc="F F F"
C        0.02000000       1.55460000       0.17790000
C       -0.00690000       0.03680000      -0.07860000
C       -1.39460000      -0.53900000      -0.10250000
C       -2.01750000      -1.01970000      -1.21740000
N       -3.29200000      -1.51680000      -1.19090000
C       -3.93710000      -1.53560000      -0.06480000
C       -3.40170000      -1.05890000       1.21250000
O       -3.96900000      -1.06240000       2.29000000
N       -2.09480000      -0.57110000       1.07230000
H        1.05040000       1.92010000       0.19080000
H       -0.52540000       2.09040000      -0.60400000
H       -0.43670000       1.81170000       1.13890000
H        0.47030000      -0.18510000      -1.03710000
H        0.58320000      -0.47670000       0.69190000
H       -1.50980000      -1.02160000      -2.17410000
H       -4.94950000      -1.93160000      -0.04170000
H       -1.67430000      -0.23260000       1.92870000
