19
Properties=species:S:1:pos:R:3 gdb_37448=T pbc="F F F"
C       -0.04260000       1.55460000       0.01760000
C        1.40830000       2.11900000       0.00280000
C        2.38850000       0.94280000      -0.06190000
O        2.20320000       0.09190000       1.08350000
C        0.88410000      -0.45910000       1.16340000
C        0.02020000       0.01580000      -0.02360000
C        0.76310000      -0.44000000      -1.27830000
O        1.13540000       0.56580000      -2.22600000
C        2.13000000       0.09350000      -1.30590000
H       -0.57120000       1.86090000       0.92580000
H       -0.61060000       1.92710000      -0.83680000
H        1.56320000       2.77970000      -0.85340000
H        1.62220000       2.68830000       0.91160000
H        3.42690000       1.27490000       0.00310000
H        0.96400000      -1.55510000       1.17850000
H        0.42810000      -0.14440000       2.11220000
H       -0.97830000      -0.42500000       0.04380000
H        0.52620000      -1.41090000      -1.70750000
H        2.95370000      -0.45510000      -1.75500000
