19
Properties=species:S:1:pos:R:3 gdb_62028=T pbc="F F F"
C       -0.27250000       1.40460000       0.01270000
N        0.00820000      -0.01930000      -0.03960000
C       -0.00540000      -0.78890000       1.18990000
C       -1.41080000      -0.98990000       1.77470000
C       -1.37910000      -1.95460000       2.96010000
N       -2.46270000      -1.88570000       3.78630000
O       -0.45950000      -2.72680000       3.15180000
C        0.32000000      -0.60070000      -1.23470000
O        0.35710000      -0.03530000      -2.30750000
H        0.38040000       1.89650000       0.74370000
H       -0.08760000       1.81560000      -0.98000000
H       -1.31430000       1.60440000       0.29030000
H        0.43200000      -1.77120000       0.99920000
H        0.63550000      -0.30120000       1.93510000
H       -1.85880000      -0.03710000       2.07740000
H       -2.06730000      -1.41460000       1.00410000
H       -3.26030000      -1.31130000       3.57710000
H       -2.53980000      -2.56680000       4.52420000
H        0.54440000      -1.67870000      -1.11500000
