18
Properties=species:S:1:pos:R:3 gdb_84474=T pbc="F F F"
C       -0.20330000       1.59420000       0.05370000
C        0.04000000       0.08500000      -0.00900000
C        0.68830000      -0.42690000      -1.28210000
C        1.73850000      -1.19980000      -1.01300000
C        1.96010000      -1.25280000       0.46000000
C        2.28280000       0.07710000       1.09360000
N        0.91160000      -0.40240000       1.10080000
C        2.35860000      -2.50610000       1.14930000
O        2.77610000      -3.48570000       0.58270000
H        0.71950000       2.16170000      -0.09740000
H       -0.91200000       1.89230000      -0.72480000
H       -0.62570000       1.87080000       1.02360000
H       -0.93100000      -0.41190000       0.12900000
H        0.31630000      -0.17650000      -2.26900000
H        2.36330000      -1.73250000      -1.71650000
H        2.74620000       0.11540000       2.07670000
H        2.59260000       0.85620000       0.40240000
H        2.25240000      -2.46300000       2.25590000
