16
Properties=species:S:1:pos:R:3 gdb_13901=T pbc="F F F"
C        0.04550000       1.40850000       0.04400000
C        0.01030000      -0.09970000      -0.03120000
O        1.05960000      -0.75060000      -0.10790000
C       -1.28750000      -0.76560000      -0.01120000
C       -1.38820000      -2.11120000      -0.81670000
O       -0.35930000      -2.51620000      -1.63620000
C       -1.32690000      -2.18630000       0.65950000
O       -0.23550000      -2.66780000       1.34590000
H        1.07770000       1.75900000       0.01920000
H       -0.51320000       1.84150000      -0.79310000
H       -0.44060000       1.75210000       0.96390000
H       -2.17050000      -0.14070000       0.05730000
H       -2.35160000      -2.26570000      -1.29300000
H        0.46950000      -2.16610000      -1.26870000
H       -2.24820000      -2.39230000       1.19580000
H        0.56160000      -2.27900000       0.94840000
