14
Properties=species:S:1:pos:R:3 gdb_129653=T pbc="F F F"
N        0.01830000       1.42700000       0.11650000
C       -0.03180000       0.04380000       0.03180000
C       -1.19140000      -0.67400000      -0.02250000
N       -2.44970000      -0.05860000      -0.07250000
C       -1.10940000      -2.11260000      -0.14720000
O       -2.09950000      -2.81330000      -0.29860000
N        0.18720000      -2.70420000      -0.08680000
N        1.23970000      -2.01030000       0.02450000
N        1.14100000      -0.66010000       0.05710000
H        0.84110000       1.85100000      -0.29290000
H       -0.82720000       1.84370000      -0.25840000
H       -2.66370000       0.49240000       0.75240000
H       -3.14680000      -0.79190000      -0.18160000
H        2.03100000      -0.20420000       0.18780000
