19
Properties=species:S:1:pos:R:3 gdb_103363=T pbc="F F F"
C       -0.14640000       1.34290000       0.02410000
O        0.23530000      -0.01610000      -0.00540000
C        0.82480000      -0.53100000       1.16100000
C        2.15740000       0.14870000       1.45090000
C       -0.23220000      -0.85350000       2.31540000
O       -0.74410000      -1.90890000       1.45060000
C        0.66500000      -2.10320000       1.12520000
C        1.24250000      -2.51160000       2.48430000
C        0.62880000      -1.64900000       3.30140000
H        0.71470000       2.02540000       0.03880000
H       -0.71740000       1.52570000      -0.88920000
H       -0.78760000       1.57220000       0.88720000
H        2.00820000       1.19640000       1.73000000
H        2.70020000      -0.33620000       2.26050000
H        2.77520000       0.13080000       0.54720000
H       -0.98220000      -0.14940000       2.67390000
H        0.85280000      -2.68810000       0.22620000
H        1.98180000      -3.27330000       2.68320000
H        0.72040000      -1.49490000       4.36660000
