14
Properties=species:S:1:pos:R:3 gdb_9979=T pbc="F F F"
N        0.03520000       1.21800000       0.09510000
C       -0.11360000      -0.03070000       0.26320000
N       -1.32650000      -0.68290000       0.03440000
C       -1.39130000      -2.14680000       0.12770000
C       -0.95970000      -2.66100000       1.42300000
C       -0.58630000      -3.08800000       2.48190000
C       -2.48360000       0.01210000      -0.29210000
O       -3.54300000      -0.52410000      -0.52200000
H        0.98500000       1.49650000       0.32990000
H        0.65940000      -0.72690000       0.60320000
H       -2.43600000      -2.40520000      -0.06640000
H       -0.78990000      -2.59620000      -0.67250000
H       -0.27250000      -3.47010000       3.42210000
H       -2.31400000       1.09630000      -0.31250000
