14
Properties=species:S:1:pos:R:3 gdb_31446=T pbc="F F F"
O        0.11510000       1.39600000      -0.05280000
C        0.05390000       0.00520000      -0.04930000
C       -1.35850000      -0.52900000      -0.00860000
N       -2.30620000       0.36480000       0.01720000
C       -3.62980000      -0.01010000       0.05490000
O       -4.57750000       0.71110000       0.08030000
O       -3.90030000      -1.41820000       0.06480000
C       -2.90760000      -2.30150000       0.03750000
C       -1.60950000      -1.93580000       0.00000000
H       -0.80680000       1.70190000      -0.02730000
H        0.54420000      -0.41690000      -0.94380000
H        0.59440000      -0.41470000       0.81690000
H       -3.26540000      -3.32620000       0.04910000
H       -0.81400000      -2.66740000      -0.02190000
