16
Properties=species:S:1:pos:R:3 gdb_80223=T pbc="F F F"
C       -0.05090000       1.56300000       0.00680000
C        0.08110000       0.05860000       0.11230000
N        1.24150000      -0.73590000      -0.24400000
C        2.47390000       0.05490000       0.11130000
C        2.05410000       0.08110000       1.59330000
O        2.59090000       0.38660000       2.61370000
C        0.78520000      -0.66020000       1.24280000
C        0.15730000      -1.80470000       1.94110000
O        0.22890000      -2.00150000       3.12620000
H        0.79490000       2.11060000       0.42430000
H       -0.16880000       1.85260000      -1.04280000
H       -0.94840000       1.88230000       0.54430000
H       -0.82660000      -0.46330000      -0.19230000
H        3.36340000      -0.56330000      -0.03470000
H        2.59340000       0.99990000      -0.42270000
H       -0.39770000      -2.48540000       1.25560000
