24
Properties=species:S:1:pos:R:3 gdb_59937=T pbc="F F F"
C       -0.52310000       1.03440000      -0.45110000
C       -0.04770000      -0.38860000      -0.12560000
C        0.79610000      -0.94370000      -1.28430000
C        0.76550000      -0.49330000       1.18020000
C        0.06010000      -0.22240000       2.54210000
C       -1.25750000      -1.01610000       2.68010000
C        1.02850000      -0.62770000       3.68090000
C       -0.22760000       1.21240000       2.71450000
N       -0.44410000       2.33450000       2.89110000
H        0.32750000       1.72130000      -0.53100000
H       -1.05130000       1.04690000      -1.41020000
H       -1.19750000       1.43880000       0.30640000
H       -0.93230000      -1.03220000      -0.03130000
H        1.70360000      -0.34570000      -1.43000000
H        1.10450000      -1.97840000      -1.10030000
H        0.23270000      -0.92250000      -2.22250000
H        1.15920000      -1.51550000       1.25090000
H        1.64050000       0.16570000       1.11090000
H       -1.06130000      -2.08070000       2.51760000
H       -1.67760000      -0.89270000       3.68190000
H       -2.00780000      -0.68890000       1.95750000
H        1.98230000      -0.10060000       3.59170000
H        0.60050000      -0.39740000       4.66000000
H        1.22170000      -1.70370000       3.63130000
