21
Properties=species:S:1:pos:R:3 gdb_114898=T pbc="F F F"
C       -0.68080000       1.79190000       0.06650000
O       -0.46430000       0.53390000       0.66470000
C       -1.26460000      -0.48470000       0.12410000
C       -0.91500000      -1.05580000      -1.28330000
C       -1.03450000      -2.49310000      -0.69090000
C        0.19980000      -3.41650000      -0.73070000
O        0.72870000      -3.43790000       0.58950000
C        0.39940000      -2.20010000       1.21040000
C       -1.03110000      -1.87940000       0.74330000
H       -0.03080000       2.50980000       0.57220000
H       -0.43480000       1.78660000      -1.00600000
H       -1.72700000       2.11870000       0.17750000
H       -2.32620000      -0.19670000       0.17760000
H       -1.58690000      -0.79870000      -2.10480000
H        0.11150000      -0.81340000      -1.57550000
H       -1.95490000      -3.00370000      -0.97650000
H       -0.03910000      -4.44870000      -1.00540000
H        0.94810000      -3.03730000      -1.44540000
H        0.48430000      -2.34070000       2.29030000
H        1.09600000      -1.40460000       0.91000000
H       -1.78000000      -2.22960000       1.45540000
