18
Properties=species:S:1:pos:R:3 gdb_109466=T pbc="F F F"
C       -0.02750000       1.51120000      -0.00390000
C        0.00250000       0.01840000      -0.01070000
C       -0.09500000      -0.79610000      -1.06840000
N       -0.06840000      -2.15260000      -0.68330000
C        0.09340000      -2.27440000       0.67380000
O        0.25180000      -3.31130000       1.29460000
C        0.10680000      -0.84380000       1.22960000
C        1.36470000      -0.65700000       2.11060000
O        1.33780000      -1.50900000       3.22840000
H        0.88910000       1.93600000       0.42410000
H       -0.13630000       1.90840000      -1.01730000
H       -0.86100000       1.89480000       0.59830000
H       -0.20650000      -0.54530000      -2.11400000
H       -0.02950000      -2.93970000      -1.30980000
H       -0.76430000      -0.71630000       1.88660000
H        2.26280000      -0.81230000       1.48920000
H        1.40100000       0.37150000       2.48510000
H        1.12320000      -2.39450000       2.89430000
