18
Properties=species:S:1:pos:R:3 gdb_85840=T pbc="F F F"
N        0.28670000       1.04730000      -0.62130000
C        0.10050000      -0.21510000       0.04060000
C        0.19870000      -0.32410000       1.59530000
O       -0.08030000       0.96090000       2.13530000
C       -1.03520000      -1.26250000       1.57730000
C       -1.39720000      -0.73640000       0.15370000
N       -2.42670000       0.29430000       0.20190000
C       -1.75770000      -1.75200000      -0.83590000
N       -1.98580000      -2.56700000      -1.62360000
H        0.14680000       1.80620000       0.03790000
H        1.22450000       1.13600000      -0.99380000
H        0.71940000      -0.98420000      -0.42720000
H        1.12860000      -0.72880000       2.01200000
H       -0.15830000       0.88110000       3.09130000
H       -0.75880000      -2.31840000       1.57340000
H       -1.80140000      -1.08780000       2.33630000
H       -2.18910000       0.94140000       0.94940000
H       -2.38790000       0.83060000      -0.66240000
