16
Properties=species:S:1:pos:R:3 gdb_77203=T pbc="F F F"
N        0.01620000       1.39570000       0.19450000
C        0.06970000      -0.02740000       0.00870000
C       -1.34790000      -0.67160000      -0.15860000
N       -1.10080000      -0.76340000      -1.62770000
C        0.35680000      -0.61270000      -1.43940000
C        1.02110000       0.27780000      -2.38470000
N        1.56430000       1.01490000      -3.09070000
C       -1.52700000      -1.94350000       0.52370000
C       -1.66740000      -3.01320000       1.05580000
H        0.94890000       1.79620000       0.21020000
H       -0.48660000       1.84490000      -0.56590000
H        0.68950000      -0.47530000       0.78480000
H       -2.16530000       0.01390000       0.08960000
H       -1.39240000      -1.63210000      -2.06250000
H        0.91370000      -1.55690000      -1.38220000
H       -1.80120000      -3.95100000       1.53650000
