15
Properties=species:S:1:pos:R:3 gdb_127341=T pbc="F F F"
C       -0.04380000       1.41170000       0.06830000
N       -0.00780000      -0.03440000       0.00500000
C       -0.03360000      -0.84970000      -1.06830000
N        0.01750000      -2.11390000      -0.69250000
C        0.07880000      -2.01460000       0.66250000
C        0.15270000      -3.20690000       1.57340000
C        1.45960000      -3.86930000       1.53720000
N        2.48880000      -4.39290000       1.51880000
N        0.06440000      -0.77670000       1.13470000
H        0.86310000       1.78910000       0.54640000
H       -0.10910000       1.80460000      -0.94760000
H       -0.91340000       1.74060000       0.64210000
H       -0.09170000      -0.48280000      -2.08230000
H       -0.05250000      -2.88630000       2.59860000
H       -0.61200000      -3.93680000       1.28770000
