17
Properties=species:S:1:pos:R:3 gdb_7566=T pbc="F F F"
C       -0.07400000       1.62890000      -0.01370000
C        0.04160000       0.11090000       0.00670000
C        1.16360000      -0.47390000      -0.91400000
C        1.97370000      -0.73240000       0.37830000
N        0.74900000      -0.48060000       1.18610000
H        0.86720000       0.14870000       1.97390000
H       -0.75040000      -1.62290000       1.17880000
C       -1.33170000      -0.54520000      -0.20660000
O       -2.11310000      -0.18070000      -1.04600000
O       -1.55440000      -1.58150000       0.61040000
H        0.91400000       2.09890000       0.02430000
H       -0.58440000       1.94340000      -0.92670000
H       -0.66290000       1.98720000       0.83810000
H        0.86740000      -1.38360000      -1.43830000
H        1.59020000       0.22840000      -1.63040000
H        2.39210000      -1.73340000       0.51480000
H        2.76810000       0.00400000       0.54260000
