20
Properties=species:S:1:pos:R:3 gdb_47029=T pbc="F F F"
N       -0.01190000       0.87980000       1.11970000
C        0.08440000       0.07570000       0.14570000
C       -1.10560000      -0.33050000      -0.68910000
C       -1.16040000      -1.85730000      -0.85780000
C       -1.61740000      -2.43750000      -2.22970000
C       -0.28230000      -3.23110000      -2.33540000
C        0.24690000      -2.49760000      -1.07020000
C        1.28090000      -1.40720000      -1.30700000
O        1.28300000      -0.48110000      -0.20970000
H        0.90790000       1.02460000       1.54290000
H       -2.00180000       0.08000000      -0.22330000
H       -1.00870000       0.14200000      -1.67570000
H       -1.69160000      -2.30480000      -0.01460000
H       -2.52810000      -3.04000000      -2.21310000
H       -1.73520000      -1.67120000      -3.00140000
H       -0.40140000      -4.30620000      -2.18500000
H        0.29640000      -3.08150000      -3.25150000
H        0.58660000      -3.14530000      -0.25810000
H        2.29990000      -1.79820000      -1.35800000
H        1.08250000      -0.87180000      -2.24620000
