18
Properties=species:S:1:pos:R:3 gdb_53685=T pbc="F F F"
C        0.07250000       1.44870000       0.01790000
C        0.03220000      -0.00540000      -0.04330000
C        0.00920000      -1.20780000      -0.09520000
C       -0.05650000      -2.66320000      -0.15180000
C       -1.48430000      -3.17390000       0.05130000
O       -1.42440000      -4.60490000      -0.02650000
C       -2.61170000      -5.23990000       0.14340000
N       -2.42280000      -6.59350000       0.10260000
O       -3.66780000      -4.68490000       0.33300000
H        0.73040000       1.79600000       0.82220000
H        0.44120000       1.87750000      -0.92050000
H       -0.92370000       1.86550000       0.20270000
H        0.31560000      -3.02650000      -1.11780000
H        0.59050000      -3.10660000       0.61530000
H       -1.87980000      -2.87120000       1.02470000
H       -2.15770000      -2.78740000      -0.71860000
H       -1.56400000      -6.95170000      -0.27890000
H       -3.25250000      -7.15260000       0.00440000
