15
Properties=species:S:1:pos:R:3 gdb_124074=T pbc="F F F"
C       -0.00000000       1.39630000      -0.34550000
O        1.36140000       1.62250000       0.06110000
C        1.46060000       0.30650000       0.63420000
C        0.06510000      -0.09510000       0.08320000
C       -0.95850000      -0.62570000       1.01890000
C       -1.42780000      -0.17760000       2.21680000
O       -2.35570000      -1.01480000       2.66900000
N       -2.46960000      -2.04990000       1.68770000
N       -1.65820000      -1.79160000       0.76520000
H       -0.71210000       2.00090000       0.23240000
H       -0.15270000       1.58700000      -1.41330000
H        2.31580000      -0.25480000       0.24250000
H        1.52140000       0.33440000       1.73060000
H        0.13130000      -0.77220000      -0.76880000
H       -1.20000000       0.67900000       2.83010000
