13
Properties=species:S:1:pos:R:3 gdb_3284=T pbc="F F F"
O       -0.19920000       0.18090000       0.40080000
C       -0.02900000       1.29840000       0.03490000
O       -0.97830000       2.17640000      -0.44830000
C        0.02310000       3.22000000      -0.67350000
C        0.14330000       4.17480000       0.53100000
C        1.22420000       3.23650000       1.15460000
C        1.11920000       2.29370000      -0.08970000
H       -0.02530000       3.59550000      -1.69400000
H        0.53240000       5.15920000       0.26110000
H       -0.78460000       4.30110000       1.09140000
H        2.20530000       3.70670000       1.23490000
H        0.98340000       2.77200000       2.11230000
H        2.02670000       1.96640000      -0.59200000
