20
Properties=species:S:1:pos:R:3 gdb_68614=T pbc="F F F"
C       -0.03170000       1.51500000       0.03830000
C       -0.00180000       0.00620000       0.00170000
C        0.34550000      -0.80520000      -1.28520000
C       -0.38250000      -1.95780000      -0.54080000
C        0.55580000      -2.21460000       0.65290000
C        0.84270000      -0.73400000       1.06320000
C       -1.33330000      -0.84100000       0.00660000
C       -2.05750000      -1.04070000       1.24970000
N       -2.61740000      -1.19650000       2.25020000
H        0.97770000       1.92530000      -0.07880000
H       -0.65460000       1.92530000      -0.76320000
H       -0.42770000       1.87720000       0.99350000
H       -0.19780000      -0.45160000      -2.16520000
H        1.40310000      -0.94560000      -1.52430000
H       -0.79150000      -2.82050000      -1.06520000
H        0.07230000      -2.78520000       1.44950000
H        1.45660000      -2.75360000       0.34790000
H        1.90020000      -0.46630000       0.98290000
H        0.51340000      -0.50740000       2.08080000
H       -2.02160000      -0.48870000      -0.76600000
