18
Properties=species:S:1:pos:R:3 gdb_116853=T pbc="F F F"
C       -0.03880000       1.42300000      -0.08670000
N        0.10170000      -0.01370000       0.03790000
C        0.55670000      -0.60960000       1.17990000
O        0.88220000      -0.00330000       2.18500000
C        0.61910000      -2.06160000       1.08690000
C        0.68950000      -3.26420000       1.06110000
C        0.76360000      -4.71740000       1.00010000
O        1.24190000      -5.23450000       2.22190000
C        1.32860000      -6.64170000       2.20380000
H        0.59190000       1.81650000      -0.89170000
H       -1.07870000       1.70560000      -0.28510000
H        0.27560000       1.86390000       0.85970000
H       -0.14130000      -0.60690000      -0.73820000
H       -0.23650000      -5.12520000       0.76760000
H        1.42250000      -5.01520000       0.16480000
H        0.34630000      -7.11000000       2.03290000
H        2.02050000      -6.99900000       1.42450000
H        1.70420000      -6.95210000       3.18080000
