19
Properties=species:S:1:pos:R:3 gdb_79532=T pbc="F F F"
O       -0.00700000       1.43410000       0.02900000
C        0.04980000       0.02130000      -0.03150000
C       -1.34790000      -0.55450000      -0.22020000
C       -1.71430000      -0.37340000      -1.72540000
C       -0.36410000      -0.03490000      -2.38820000
C        0.63330000      -0.58250000      -1.33810000
C        0.32800000      -2.08140000      -1.10270000
C       -1.16100000      -2.02560000      -0.68790000
O       -1.97530000      -1.79580000      -1.86210000
H        0.89490000       1.76900000       0.05730000
H        0.54780000      -0.38990000       0.85980000
H       -2.11020000      -0.33740000       0.52370000
H       -2.56540000       0.23470000      -2.03510000
H       -0.27870000      -0.51070000      -3.36820000
H       -0.24460000       1.04590000      -2.49890000
H        1.68360000      -0.35520000      -1.53640000
H        0.46210000      -2.70770000      -1.98830000
H        0.95050000      -2.48550000      -0.29550000
H       -1.51970000      -2.86700000      -0.09150000
