14
Properties=species:S:1:pos:R:3 gdb_56115=T pbc="F F F"
N       -0.14870000       1.07140000       0.26550000
C       -0.15880000      -0.25090000      -0.07850000
O        0.80270000      -0.97910000       0.01040000
C       -1.49770000      -0.71820000      -0.67420000
O       -1.53260000      -2.13310000      -0.79900000
C       -1.68130000      -2.79790000       0.36660000
O       -1.85350000      -2.26970000       1.43600000
C       -1.63700000      -4.22510000       0.15310000
C       -1.61050000      -5.42000000       0.03480000
H        0.67140000       1.40970000       0.74440000
H       -1.00720000       1.57570000       0.41250000
H       -2.33500000      -0.36640000      -0.06370000
H       -1.59970000      -0.33220000      -1.69140000
H       -1.58230000      -6.47720000      -0.07090000
