20
Properties=species:S:1:pos:R:3 gdb_117419=T pbc="F F F"
C        0.11400000       1.54280000      -0.23640000
C        0.00940000       0.04380000      -0.02590000
O        0.65020000      -0.59350000      -1.14280000
C        0.66910000      -1.94000000      -1.14880000
N        0.14270000      -2.61120000      -0.20810000
C        1.38210000      -2.42000000      -2.39710000
C        1.47400000      -3.94910000      -2.52620000
C        2.16690000      -4.36170000      -3.74010000
C        2.74090000      -4.68030000      -4.74650000
H        1.16000000       1.85820000      -0.28840000
H       -0.38120000       1.84270000      -1.16450000
H       -0.36400000       2.06930000       0.59510000
H        0.49990000      -0.27750000       0.89880000
H       -1.03120000      -0.29270000       0.02900000
H        0.24180000      -3.61100000      -0.36330000
H        0.86740000      -2.00080000      -3.26810000
H        2.38570000      -1.98200000      -2.40810000
H        1.99360000      -4.36170000      -1.65190000
H        0.46480000      -4.38050000      -2.51820000
H        3.24640000      -4.97450000      -5.63270000
