12
Properties=species:S:1:pos:R:3 gdb_25123=T pbc="F F F"
O       -0.03520000       0.34800000      -0.92740000
C        0.00450000       1.25530000      -0.16220000
O       -1.19930000       1.70900000       0.41620000
C       -1.56770000       2.99630000       0.29560000
C       -0.84740000       4.06560000      -0.09660000
C        0.60140000       4.17530000      -0.26050000
O        1.15790000       5.16970000      -0.68600000
C        1.44560000       3.05410000       0.29740000
N        1.15940000       1.81770000       0.35220000
H       -2.62190000       3.09730000       0.53420000
H       -1.38780000       4.99750000      -0.22080000
H        2.41230000       3.37630000       0.68930000
