25
Properties=species:S:1:pos:R:3 gdb_116295=T pbc="F F F"
C        0.04880000       1.70370000      -0.03050000
C       -0.01460000       0.17220000       0.01990000
C        0.67870000      -0.49250000      -1.17540000
C        2.19810000      -0.20640000      -1.22990000
O        2.79270000      -1.32470000      -1.86240000
C        2.11220000      -2.45520000      -1.34990000
C        0.61880000      -2.06210000      -1.26230000
C       -0.13240000      -2.79960000      -0.14730000
C       -0.18430000      -4.31660000      -0.36600000
H        1.08080000       2.06840000       0.00390000
H       -0.40630000       2.08690000      -0.95090000
H       -0.48510000       2.14840000       0.81500000
H        0.43960000      -0.17790000       0.95570000
H       -1.06560000      -0.13670000       0.05530000
H        0.22280000      -0.09040000      -2.08750000
H        2.46410000       0.68450000      -1.80390000
H        2.59520000      -0.08740000      -0.20520000
H        2.31330000      -3.29820000      -2.01540000
H        2.49340000      -2.71140000      -0.34440000
H        0.14090000      -2.32520000      -2.21300000
H        0.33920000      -2.58980000       0.82130000
H       -1.15730000      -2.41760000      -0.07790000
H       -0.65900000      -4.56090000      -1.32310000
H        0.81690000      -4.76020000      -0.37160000
H       -0.75750000      -4.80960000       0.42520000
