19
Properties=species:S:1:pos:R:3 gdb_54415=T pbc="F F F"
C       -0.64720000       1.18630000       0.19690000
C        0.28730000       0.01110000      -0.03050000
O        1.06120000      -0.36600000       0.82960000
C        0.19690000      -0.68080000      -1.33150000
C        1.29960000      -1.62650000      -1.80530000
C       -0.04080000      -2.20020000      -1.55440000
C       -0.38720000      -3.29750000      -0.60530000
O       -0.91460000      -1.94940000      -2.65650000
C       -0.80580000      -0.51350000      -2.46710000
H       -0.55230000       1.92330000      -0.60850000
H       -1.69020000       0.84900000       0.20090000
H       -0.41700000       1.65180000       1.15560000
H        1.66440000      -1.53260000      -2.82440000
H        2.04420000      -1.80650000      -1.03760000
H        0.23000000      -3.21580000       0.29340000
H       -1.44180000      -3.24910000      -0.31990000
H       -0.20050000      -4.27440000      -1.06530000
H       -1.77140000      -0.09890000      -2.15770000
H       -0.45880000      -0.00180000      -3.37280000
