15
Properties=species:S:1:pos:R:3 gdb_51405=T pbc="F F F"
O       -0.16680000      -0.01400000       0.31600000
C       -0.05310000       1.16770000       0.07170000
N        1.12320000       1.81270000      -0.16670000
C        2.38760000       1.14240000      -0.15500000
C        3.38960000       1.49910000      -1.29950000
N        3.52220000       2.86220000      -0.60840000
C        3.56930000       1.87120000       0.56160000
C        4.51640000       1.05110000      -0.34230000
O        5.60290000       0.56590000      -0.35020000
H       -0.91430000       1.86140000       0.01620000
H        1.12650000       2.80140000      -0.36390000
H        2.23040000       0.08990000       0.07050000
H        3.26380000       1.40510000      -2.37590000
H        4.43980000       3.28090000      -0.78070000
H        3.64720000       2.19910000       1.59580000
