22
Properties=species:S:1:pos:R:3 gdb_59713=T pbc="F F F"
C       -0.04370000       1.54770000      -0.24110000
C        0.03580000       0.04370000       0.02060000
O        0.80940000      -0.23710000       1.18680000
C       -1.35070000      -0.61850000       0.06650000
C       -1.33660000      -2.15760000       0.20350000
C       -2.70900000      -2.47380000       0.83390000
C       -3.04400000      -1.21220000       1.61950000
C       -1.97840000      -0.65360000       2.48520000
N       -2.22180000      -0.08360000       1.14090000
H        0.96000000       1.98110000      -0.25680000
H       -0.52760000       1.75530000      -1.20080000
H       -0.63480000       2.04020000       0.53820000
H        0.59140000      -0.43290000      -0.79720000
H        0.47500000       0.32690000       1.89200000
H       -1.86010000      -0.35250000      -0.87010000
H       -1.19440000      -2.65250000      -0.76050000
H       -0.51340000      -2.46940000       0.85150000
H       -3.46670000      -2.62860000       0.05740000
H       -2.69610000      -3.37200000       1.45900000
H       -4.08640000      -0.99380000       1.83420000
H       -2.24150000       0.01530000       3.29990000
H       -1.08900000      -1.25090000       2.65860000
