16
Properties=species:S:1:pos:R:3 gdb_16209=T pbc="F F F"
O        0.07350000       0.01330000      -0.11820000
C        0.01510000       1.21180000      -0.02700000
C       -1.23850000       2.08220000       0.02930000
C       -0.74590000       3.43910000       0.56970000
C        0.70030000       3.56960000       0.03570000
C        1.21580000       2.14350000       0.06790000
C        2.43070000       1.67820000       0.76530000
O        2.38720000       1.77300000      -0.65220000
H       -1.60910000       2.18400000      -1.00000000
H       -2.03110000       1.60770000       0.61140000
H       -1.37940000       4.27470000       0.26520000
H       -0.73620000       3.41970000       1.66510000
H        0.69280000       3.91900000      -1.00400000
H        1.31190000       4.26600000       0.61350000
H        3.05630000       2.41310000       1.27090000
H        2.45420000       0.66440000       1.16080000
