14
Properties=species:S:1:pos:R:3 gdb_45925=T pbc="F F F"
N       -0.08090000       1.23980000       0.32910000
C        0.02730000       0.00200000       0.07940000
N       -1.11680000      -0.74870000      -0.17760000
C       -1.18670000      -2.11300000      -0.29360000
O       -2.22090000      -2.71530000      -0.46750000
C        0.14010000      -2.83590000      -0.12780000
O        1.31520000      -2.05290000      -0.34570000
C        1.33650000      -0.73900000      -0.01400000
N        2.41050000      -0.09150000       0.14530000
H        0.85470000       1.62860000       0.46150000
H       -1.99050000      -0.23630000      -0.20630000
H        0.16690000      -3.26410000       0.88310000
H        0.17280000      -3.65780000      -0.84370000
H        3.22360000      -0.69950000       0.04190000
