13
Properties=species:S:1:pos:R:3 gdb_12588=T pbc="F F F"
C       -0.00800000       1.46090000       0.00320000
N        0.00890000       0.01200000      -0.00030000
C        0.10260000      -0.77400000      -1.14790000
O        0.18180000      -0.35860000      -2.27840000
C        0.08320000      -2.20050000      -0.67320000
C       -0.01540000      -2.20680000       0.65580000
C       -0.06740000      -0.78590000       1.14300000
O       -0.15640000      -0.38780000       2.27900000
H        0.91070000       1.85860000      -0.43630000
H       -0.85960000       1.83830000      -0.56920000
H       -0.08960000       1.78360000       1.04190000
H        0.14380000      -3.02930000      -1.36390000
H       -0.05700000      -3.04180000       1.34030000
