18
Properties=species:S:1:pos:R:3 gdb_54317=T pbc="F F F"
N        0.98620000      -0.02740000      -0.56830000
C       -0.13160000       0.23040000       0.16440000
O       -0.22770000       1.18350000       0.92010000
C       -1.27780000      -0.74720000      -0.01820000
C       -2.15880000      -0.91240000       1.17530000
N       -2.61270000      -0.11530000       0.03560000
C       -1.09310000      -1.86690000      -0.99550000
C       -2.20640000      -2.37630000      -1.82300000
N       -1.13130000      -1.57910000      -2.45050000
H        1.71710000       0.66580000      -0.54350000
H        0.96130000      -0.66650000      -1.34670000
H       -2.67230000      -1.86000000       1.30920000
H       -1.86390000      -0.38700000       2.07780000
H       -2.46600000       0.86770000       0.26550000
H       -0.30430000      -2.56630000      -0.72310000
H       -2.22350000      -3.42390000      -2.10810000
H       -3.17350000      -1.90300000      -1.69110000
H       -1.48510000      -0.63120000      -2.57480000
