10
Properties=species:S:1:pos:R:3 gdb_23781=T pbc="F F F"
F       -0.02950000       0.03440000       0.00420000
C       -0.03900000       1.35690000       0.01100000
C       -1.19940000       2.02760000       0.02940000
O       -1.22260000       3.38860000       0.03650000
C       -0.02150000       4.01180000       0.02400000
N        1.12940000       3.47390000       0.00650000
C        1.25290000       2.06190000      -0.00200000
O        2.32120000       1.50190000      -0.01900000
H       -2.18310000       1.57920000       0.03990000
H       -0.15930000       5.08910000       0.03120000
