21
Properties=species:S:1:pos:R:3 gdb_106534=T pbc="F F F"
C       -0.69950000       1.85330000      -0.27310000
C       -0.48430000       0.33450000      -0.31400000
C       -1.76120000      -0.43810000      -0.12130000
C       -3.08820000      -0.39660000      -0.97380000
C       -3.41930000      -1.44270000       0.14340000
C       -1.96210000      -2.00890000      -0.04840000
C       -1.61890000      -2.88850000      -1.24380000
C       -2.73450000      -0.43000000       1.06980000
O       -2.87360000       0.09380000       2.13370000
H        0.24850000       2.38620000      -0.39090000
H       -1.36830000       2.17980000      -1.07640000
H       -1.14480000       2.15560000       0.67930000
H       -0.01770000       0.04580000      -1.26480000
H        0.22030000       0.04180000       0.47520000
H       -3.65840000       0.53430000      -0.96530000
H       -3.00870000      -0.79550000      -1.98420000
H       -4.34140000      -2.00280000       0.28200000
H       -1.54360000      -2.45750000       0.85920000
H       -2.01280000      -2.52170000      -2.19390000
H       -0.53180000      -2.97410000      -1.34730000
H       -2.01300000      -3.89870000      -1.09110000
