20
Properties=species:S:1:pos:R:3 gdb_55638=T pbc="F F F"
C        0.11700000       1.58920000      -0.01620000
C        0.06340000       0.04400000       0.04100000
C        0.89180000      -0.47760000       1.23910000
C       -1.40400000      -0.45990000       0.11710000
C       -2.21940000      -0.02410000       1.33820000
N       -3.49690000      -0.50570000       1.33450000
O       -1.80670000       0.67970000       2.24190000
C        0.63170000      -0.49740000      -1.20110000
C        1.08980000      -0.94410000      -2.21950000
H        1.15190000       1.92490000      -0.12460000
H       -0.44860000       1.96550000      -0.87430000
H       -0.30280000       2.00810000       0.89910000
H        0.48210000      -0.08570000       2.17080000
H        0.87730000      -1.57150000       1.27390000
H        1.93350000      -0.15990000       1.14160000
H       -1.94010000      -0.13180000      -0.78190000
H       -1.40610000      -1.55630000       0.08310000
H       -3.85580000      -1.08730000       0.59820000
H       -4.09980000      -0.26430000       2.10360000
H        1.50500000      -1.33300000      -3.11600000
