23
Properties=species:S:1:pos:R:3 gdb_78302=T pbc="F F F"
C        0.02440000       1.51660000       0.04170000
C       -0.02290000       0.00300000       0.00020000
C        1.26850000      -0.73200000      -0.27700000
C        0.66040000      -0.75380000       1.11630000
C        0.44640000      -2.27460000       1.30830000
C       -0.15340000      -2.73890000       2.61670000
C        1.83420000      -2.79710000       0.77250000
C        1.27420000      -2.24210000      -0.58230000
C       -0.10140000      -2.74680000      -0.07120000
H        0.97220000       1.87310000       0.45940000
H       -0.07650000       1.94290000      -0.96250000
H       -0.78400000       1.92170000       0.66040000
H       -0.94910000      -0.38580000      -0.41010000
H        2.15920000      -0.15540000      -0.50480000
H        1.08990000      -0.19580000       1.94310000
H       -1.16690000      -2.34270000       2.74790000
H       -0.21130000      -3.83140000       2.66560000
H        0.44560000      -2.39790000       3.46940000
H        2.73850000      -2.33060000       1.17520000
H        1.92150000      -3.88800000       0.79590000
H        1.67390000      -2.56040000      -1.54550000
H       -0.16560000      -3.83680000      -0.11330000
H       -1.02450000      -2.32120000      -0.46760000
