14
Properties=species:S:1:pos:R:3 gdb_5377=T pbc="F F F"
C       -0.00600000       1.45110000      -0.00670000
N       -0.01220000      -0.00010000       0.02450000
C        0.52690000      -0.64510000      -0.91660000
O        1.13580000       0.03430000      -1.99920000
C        1.70740000      -0.66720000      -2.99660000
N        1.78040000      -1.93500000      -3.10740000
C        1.19810000      -2.66440000      -2.07100000
C        0.59460000      -2.08670000      -1.01560000
H        1.01360000       1.85950000      -0.02700000
H       -0.52550000       1.84680000      -0.89000000
H       -0.50970000       1.82910000       0.88560000
H        2.12790000      -0.00350000      -3.74690000
H        1.26370000      -3.74230000      -2.17150000
H        0.14350000      -2.65420000      -0.21260000
