20
Properties=species:S:1:pos:R:3 gdb_83520=T pbc="F F F"
C       -0.00320000       1.61580000      -0.01420000
C        0.01510000       0.08860000       0.01490000
C        0.98660000      -0.58140000      -0.97400000
O        2.27110000      -0.11240000      -0.51130000
C        2.18550000      -0.12280000       0.93350000
C        0.74220000      -0.58810000       1.20430000
N        0.81630000      -2.04900000       0.90340000
C       -0.26040000      -2.62520000       0.08480000
C        0.93720000      -2.05740000      -0.58650000
H        1.00130000       2.03400000      -0.10320000
H       -0.58750000       1.97390000      -0.86810000
H       -0.46800000       2.01910000       0.89200000
H       -1.00870000      -0.26970000      -0.09260000
H        0.89650000      -0.34240000      -2.03370000
H        2.91050000      -0.82990000       1.34740000
H        2.39380000       0.88160000       1.31830000
H        0.36620000      -0.39260000       2.20930000
H       -0.31860000      -3.70570000       0.18100000
H       -1.22860000      -2.14370000       0.00460000
H        1.69510000      -2.70740000      -1.01380000
