17
Properties=species:S:1:pos:R:3 gdb_52534=T pbc="F F F"
C        0.16900000       1.32900000       0.43970000
C        0.05200000      -0.09470000       0.17700000
C       -0.06860000      -1.27570000      -0.04280000
C       -0.18730000      -2.69460000      -0.30830000
O       -1.25910000      -3.23110000      -0.49770000
C        1.12770000      -3.45000000      -0.30780000
C        1.75560000      -3.69130000       1.09450000
O        1.60090000      -5.11290000       0.96030000
C        1.03940000      -4.98460000      -0.36620000
H        1.21600000       1.64410000       0.49440000
H       -0.32170000       1.90980000      -0.34870000
H       -0.31350000       1.58680000       1.38870000
H        1.81080000      -2.98020000      -1.01940000
H        2.80650000      -3.39250000       1.19050000
H        1.18970000      -3.28630000       1.94270000
H        0.01870000      -5.37370000      -0.42680000
H        1.66920000      -5.46390000      -1.12430000
