15
Properties=species:S:1:pos:R:3 gdb_18005=T pbc="F F F"
O       -0.02090000      -0.04280000       0.33320000
C        0.01540000       1.16950000       0.31910000
N        1.11160000       1.89960000       0.01130000
C        2.47130000       1.47770000      -0.35400000
C        2.82670000       2.97860000      -0.51410000
O        2.57870000       3.48550000      -1.83430000
C        1.24960000       3.93930000      -1.47580000
C        1.37980000       3.33260000      -0.06360000
H       -0.85230000       1.81520000       0.57030000
H        2.98820000       0.95440000       0.45780000
H        2.53840000       0.89300000      -1.27530000
H        3.75000000       3.35350000      -0.07150000
H        1.18970000       5.03470000      -1.48890000
H        0.46940000       3.51570000      -2.11670000
H        1.09120000       3.92700000       0.80390000
