13
Properties=species:S:1:pos:R:3 gdb_5466=T pbc="F F F"
O        0.09580000       1.35520000       0.09720000
C        0.05780000       0.00270000       0.04640000
C        0.02790000      -0.78890000      -1.09950000
N       -0.00590000      -2.10780000      -0.66080000
C        0.00280000      -2.14130000       0.69860000
C        0.04190000      -0.84550000       1.17590000
C        0.02970000      -0.39000000      -2.44230000
C        0.03290000      -0.00100000      -3.58640000
H        0.09890000       1.68910000      -0.80830000
H       -0.03250000      -2.90400000      -1.27230000
H       -0.01950000      -3.07840000       1.23120000
H        0.05760000      -0.53680000       2.20850000
H        0.03560000       0.33340000      -4.59380000
