19
Properties=species:S:1:pos:R:3 gdb_29902=T pbc="F F F"
C       -0.37290000       1.33420000       0.06070000
N       -0.10760000      -0.08340000      -0.06260000
C        0.54570000      -0.68320000      -1.11110000
C        0.70810000      -2.01460000      -0.81450000
C        0.13120000      -2.24380000       0.47170000
C       -0.35270000      -1.02480000       0.90500000
C        0.06220000      -3.54660000       1.17140000
C       -0.88180000      -3.78220000       2.29120000
N       -1.11250000      -4.44380000       0.99600000
H        0.45000000       1.86250000       0.55650000
H       -0.51710000       1.76710000      -0.93190000
H       -1.28660000       1.49050000       0.63950000
H        0.83470000      -0.10730000      -1.97630000
H        1.16570000      -2.75700000      -1.45090000
H       -0.83150000      -0.74550000       1.83020000
H        0.99430000      -4.10820000       1.18030000
H       -0.60350000      -4.44730000       3.10410000
H       -1.54400000      -2.97200000       2.58420000
H       -1.82790000      -3.92640000       0.48870000
