16
Properties=species:S:1:pos:R:3 gdb_86875=T pbc="F F F"
O        0.00580000       1.47670000       0.13190000
C        0.01670000       0.07840000       0.03250000
C       -1.38140000      -0.54600000      -0.00680000
C       -1.17730000      -1.81620000      -0.88440000
N       -0.06590000      -1.44970000      -1.73520000
C        0.65230000      -0.38170000      -1.28530000
O        1.60470000       0.15400000      -1.80990000
C       -0.91400000      -3.06420000      -0.04890000
O        0.09550000      -3.71410000      -0.09750000
H        0.77210000       1.77670000      -0.37940000
H        0.61060000      -0.37290000       0.84670000
H       -1.79140000      -0.78090000       0.97780000
H       -2.05990000       0.14880000      -0.50760000
H       -2.08540000      -2.02030000      -1.46960000
H        0.28270000      -2.04700000      -2.46860000
H       -1.76150000      -3.34200000       0.61940000
