20
Properties=species:S:1:pos:R:3 gdb_112003=T pbc="F F F"
C       -0.21380000       1.36440000      -0.03330000
O        0.15740000       0.00720000      -0.10150000
C        0.69800000      -0.50750000       1.10590000
C       -0.33390000      -0.79660000       2.18300000
C       -0.42680000      -2.10650000       2.43220000
C        0.54490000      -2.89660000       1.62240000
C        1.27960000      -1.88740000       0.78540000
N        1.98770000      -2.64290000       1.79840000
C        2.53410000      -2.01190000       2.98860000
H        0.63220000       2.00180000       0.27020000
H       -0.53640000       1.66080000      -1.03440000
H       -1.04440000       1.53880000       0.66640000
H        1.47130000       0.18850000       1.47720000
H       -0.88190000      -0.01620000       2.69910000
H       -1.08730000      -2.56030000       3.16290000
H        0.29450000      -3.89930000       1.28900000
H        1.56970000      -2.05680000      -0.24760000
H        1.88530000      -1.26240000       3.46390000
H        2.75260000      -2.79020000       3.72650000
H        3.47900000      -1.52910000       2.71890000
