25
Properties=species:S:1:pos:R:3 gdb_103747=T pbc="F F F"
C        0.03890000       1.45530000      -0.46930000
C       -0.07080000       0.10340000       0.25050000
C       -1.46570000      -0.51990000       0.20430000
C       -2.48810000       0.28370000       0.99760000
C       -1.91400000      -1.17760000      -1.08440000
C       -1.59140000      -2.04360000       0.11560000
C       -0.35320000      -2.92880000       0.07160000
C       -2.74270000      -2.74430000       0.81120000
O       -3.07160000      -3.91020000       0.05780000
H        1.07160000       1.81780000      -0.45170000
H       -0.26810000       1.36690000      -1.51680000
H       -0.58400000       2.22550000      -0.00480000
H        0.65950000      -0.57800000      -0.19200000
H        0.22980000       0.22650000       1.30030000
H       -2.48190000       1.33190000       0.68150000
H       -3.50970000      -0.07580000       0.86230000
H       -2.26370000       0.26560000       2.07130000
H       -2.95400000      -1.07750000      -1.37930000
H       -1.22190000      -1.20000000      -1.92100000
H        0.39880000      -2.57220000      -0.63470000
H        0.12020000      -3.00570000       1.05840000
H       -0.64640000      -3.93490000      -0.23940000
H       -2.43930000      -3.01870000       1.83550000
H       -3.61830000      -2.08960000       0.89310000
H       -3.71280000      -4.41800000       0.56340000
