17
Properties=species:S:1:pos:R:3 gdb_36274=T pbc="F F F"
N        0.01910000      -0.65730000      -1.79360000
C       -0.06530000       0.21350000      -1.03880000
C       -0.15030000       1.32030000      -0.08510000
C        1.19900000       2.05330000       0.03200000
C        1.52300000       3.48660000      -0.26570000
C        0.63290000       4.51440000       0.46050000
C       -0.38250000       3.99270000       1.40590000
N        1.03080000       4.00490000       1.82000000
C        1.81230000       2.91820000       1.11510000
H       -0.94170000       1.99200000      -0.42790000
H       -0.46690000       0.90940000       0.88050000
H        2.00300000       1.42310000      -0.34400000
H        2.21230000       3.78600000      -1.04440000
H        0.70590000       5.57360000       0.23640000
H       -0.95740000       4.74600000       1.93890000
H       -0.91250000       3.06280000       1.26950000
H        2.75000000       2.63980000       1.57980000
