17
Properties=species:S:1:pos:R:3 gdb_2017=T pbc="F F F"
O       -0.08980000       1.41010000       0.00980000
C       -0.03490000      -0.01030000       0.00270000
C       -1.44440000      -0.52820000       0.01280000
C       -2.55410000      -0.26550000      -1.05180000
C       -3.20990000      -1.17520000       0.02560000
C       -1.90070000      -2.01720000       0.01150000
C       -2.53570000      -0.27300000       1.09790000
H        0.81160000       1.74470000       0.00300000
H        0.48810000      -0.38730000      -0.89200000
H        0.50380000      -0.39560000       0.88440000
H       -2.92250000       0.76030000      -1.12520000
H       -2.39650000      -0.70920000      -2.03960000
H       -4.23240000      -1.55410000       0.03300000
H       -1.69480000      -2.59200000      -0.89670000
H       -1.67920000      -2.59830000       0.91190000
H       -2.36120000      -0.72360000       2.07980000
H       -2.90270000       0.75220000       1.18480000
