23
Properties=species:S:1:pos:R:3 gdb_89381=T pbc="F F F"
C        0.76350000       1.40220000       0.04980000
C       -0.16460000       0.18230000      -0.00770000
C        0.12700000      -0.73230000      -1.23070000
C        0.98120000      -1.87370000      -0.70100000
C        1.26090000      -3.06040000      -1.58300000
O        2.08510000      -1.39870000       0.10030000
C        0.90320000      -1.88390000       0.77410000
C        1.08910000      -3.08290000       1.66420000
C       -0.00300000      -0.74930000       1.22640000
H        1.80840000       1.08800000       0.10290000
H        0.63690000       2.03160000      -0.83820000
H        0.54350000       2.01940000       0.92800000
H       -1.19620000       0.54470000      -0.05980000
H       -0.79920000      -1.14830000      -1.64660000
H        0.62820000      -0.19070000      -2.04090000
H        1.81710000      -2.74930000      -2.47440000
H        1.85770000      -3.81310000      -1.06340000
H        0.32680000      -3.52370000      -1.91880000
H        1.73800000      -3.82870000       1.20010000
H        1.54800000      -2.78450000       2.61350000
H        0.12510000      -3.55000000       1.89320000
H        0.40960000      -0.21930000       2.09230000
H       -0.96760000      -1.17030000       1.53640000
