14
Properties=species:S:1:pos:R:3 gdb_104969=T pbc="F F F"
O        0.77900000       0.95170000      -0.10980000
C        0.20230000      -0.29060000      -0.45100000
C       -1.27150000      -0.31150000      -0.10340000
C       -1.88960000      -1.44610000       0.62120000
O       -1.56490000      -0.24150000       1.29910000
C       -2.16780000       0.53170000      -0.96840000
O       -1.89440000       0.86300000      -2.09230000
C       -3.45640000       0.92530000      -0.35620000
N       -4.48610000       1.22810000       0.07320000
H        0.68070000       1.06170000       0.84310000
H        0.32460000      -0.40910000      -1.53040000
H        0.69990000      -1.13110000       0.05330000
H       -2.95360000      -1.64810000       0.51440000
H       -1.26160000      -2.30540000       0.84920000
