20
Properties=species:S:1:pos:R:3 gdb_13106=T pbc="F F F"
C       -0.02500000       1.51410000      -0.29180000
C       -0.05340000       0.00510000      -0.03740000
C        0.81440000      -0.41340000       1.15700000
C        0.76620000      -1.91360000       1.43740000
C        1.51810000      -2.50820000       2.67310000
C        0.25510000      -3.33250000       3.06600000
C       -0.52730000      -2.49970000       2.03740000
O       -1.69250000      -2.28790000       1.85410000
H        0.99370000       1.86550000      -0.49250000
H       -0.64580000       1.78440000      -1.15160000
H       -0.40030000       2.06840000       0.57570000
H       -1.08170000      -0.32770000       0.13990000
H        0.29200000      -0.52570000      -0.93480000
H        1.85750000      -0.11580000       0.98280000
H        0.48740000       0.12980000       2.05430000
H        1.02030000      -2.47470000       0.52760000
H        2.42120000      -3.08040000       2.45710000
H        1.75600000      -1.73940000       3.41270000
H        0.31210000      -4.38540000       2.77040000
H       -0.10100000      -3.28210000       4.09780000
