18
Properties=species:S:1:pos:R:3 gdb_13220=T pbc="F F F"
O        0.09200000       1.40020000      -0.16970000
C        0.07810000       0.01750000       0.11100000
C       -1.35240000      -0.53170000       0.05170000
O       -1.95240000      -0.14310000      -1.18170000
C       -1.40530000      -2.04570000       0.20370000
C       -2.77910000      -2.74350000       0.11100000
C       -2.14720000      -3.52470000      -1.05560000
O       -0.96080000      -2.69160000      -1.02400000
H       -0.52060000       1.51220000      -0.90870000
H        0.70860000      -0.54920000      -0.59570000
H        0.49710000      -0.12100000       1.11430000
H       -1.94930000      -0.06350000       0.84420000
H       -1.60410000      -0.77140000      -1.83190000
H       -0.79510000      -2.36850000       1.05830000
H       -3.09250000      -3.32300000       0.97970000
H       -3.57690000      -2.06540000      -0.19490000
H       -1.90180000      -4.56990000      -0.83200000
H       -2.65460000      -3.47460000      -2.02450000
