17
Properties=species:S:1:pos:R:3 gdb_48660=T pbc="F F F"
O       -0.23620000       0.21050000      -0.14870000
C       -0.02540000       1.40040000      -0.19930000
C        1.31090000       1.99060000      -0.02140000
C        1.51570000       3.42150000       0.37060000
C        1.98230000       3.06040000      -1.00390000
C        3.27540000       2.23820000      -0.96930000
C        2.62240000       1.20650000       0.00450000
C        1.32920000       3.62230000      -2.20180000
O        0.26010000       4.18860000      -2.19990000
H       -0.83680000       2.13240000      -0.39480000
H        0.62160000       4.03720000       0.38200000
H        2.25200000       3.65070000       1.13690000
H        3.51580000       1.79900000      -1.94050000
H        4.15520000       2.77290000      -0.59930000
H        3.08370000       1.11220000       0.99130000
H        2.50930000       0.21290000      -0.42950000
H        1.90050000       3.47330000      -3.14520000
