16
Properties=species:S:1:pos:R:3 gdb_55271=T pbc="F F F"
N        0.11610000       1.39230000      -0.15640000
C        0.04200000       0.02640000      -0.12960000
N       -1.05510000      -0.63260000       0.03310000
H       -2.28440000      -1.27710000       1.35230000
C       -0.70580000      -2.05450000      -0.06100000
C        0.84820000      -2.12220000      -0.08820000
N        1.17770000      -0.72220000      -0.39360000
C       -1.32090000      -2.84480000       1.09850000
O       -2.27890000      -2.17310000       1.75130000
O       -0.98370000      -3.96220000       1.38880000
H        0.99560000       1.82440000       0.07600000
H       -0.69600000       1.86110000       0.21320000
H       -1.12040000      -2.48710000      -0.98250000
H        1.25110000      -2.44420000       0.87940000
H        1.22850000      -2.79530000      -0.85850000
H        2.07250000      -0.36420000      -0.09310000
