22
Properties=species:S:1:pos:R:3 gdb_104360=T pbc="F F F"
C       -0.32260000       1.34490000       0.08410000
C       -0.04250000      -0.13890000      -0.17660000
C        0.94810000      -0.45220000      -1.33360000
C        2.30180000       0.22910000      -1.11860000
C        1.05460000      -1.98270000      -1.53850000
C       -0.05910000      -2.33150000      -2.55000000
N       -0.20360000      -1.08740000      -3.28330000
C        0.31130000       0.01480000      -2.66060000
O        0.25260000       1.15460000      -3.07700000
H        0.57130000       1.86550000       0.43950000
H       -0.66200000       1.84990000      -0.82310000
H       -1.09370000       1.45350000       0.85340000
H        0.36310000      -0.60100000       0.73330000
H       -0.99110000      -0.65360000      -0.37890000
H        2.71440000      -0.01960000      -0.13460000
H        3.02380000      -0.08740000      -1.87820000
H        2.20130000       1.31410000      -1.19270000
H        2.02760000      -2.22980000      -1.97440000
H        0.95470000      -2.54610000      -0.60720000
H        0.22620000      -3.15530000      -3.21210000
H       -0.99390000      -2.61820000      -2.04770000
H       -0.77970000      -0.98340000      -4.10350000
