17
Properties=species:S:1:pos:R:3 gdb_109662=T pbc="F F F"
O        0.02550000       1.15750000      -0.53580000
C       -0.13480000       0.06150000       0.34980000
C       -1.47980000      -0.62300000       0.18120000
C       -1.81710000      -1.27980000      -1.11090000
O       -0.79580000      -1.30420000      -2.07480000
C       -1.55880000      -2.15910000       0.12010000
O       -0.39420000      -2.91810000       0.12730000
C       -2.72780000      -2.82420000       0.73900000
O       -3.80770000      -2.29510000       0.87090000
H        0.01530000       0.79310000      -1.42790000
H        0.67360000      -0.67230000       0.24030000
H       -0.06260000       0.47210000       1.36080000
H       -2.32980000      -0.16600000       0.67860000
H       -2.83350000      -1.21810000      -1.49020000
H       -1.08780000      -1.84110000      -2.81900000
H        0.02460000      -2.79720000      -0.73630000
H       -2.53120000      -3.86840000       1.06250000
