20
Properties=species:S:1:pos:R:3 gdb_57611=T pbc="F F F"
C       -0.03410000       1.70150000      -0.12080000
C        0.04140000       0.17110000      -0.05750000
O        0.74790000      -0.24880000       1.10460000
C       -1.38410000      -0.46360000      -0.05190000
C       -2.10480000      -0.17820000       1.18210000
C       -2.63200000       0.06740000       2.23580000
C        0.80500000      -0.37570000      -1.25670000
C        2.28140000      -0.47860000      -1.24150000
N        1.44360000      -1.69580000      -1.18470000
H        0.97150000       2.12220000      -0.04610000
H       -0.48210000       2.03620000      -1.06240000
H       -0.64080000       2.09340000       0.70150000
H        0.17260000      -0.09370000       1.86400000
H       -1.95070000      -0.09850000      -0.91640000
H       -1.27950000      -1.54780000      -0.17350000
H       -3.13380000       0.27610000       3.14850000
H        0.30920000      -0.17680000      -2.20540000
H        2.84210000      -0.34870000      -2.16280000
H        2.79560000      -0.17600000      -0.33530000
H        1.41080000      -1.99530000      -0.21120000
