17
Properties=species:S:1:pos:R:3 gdb_2802=T pbc="F F F"
C        0.16910000       1.47520000       0.08450000
C        0.03800000      -0.04900000       0.01570000
C        0.51590000      -0.59330000      -1.32060000
O        1.92900000      -0.34730000      -1.55530000
C        2.23280000      -1.75550000      -1.55210000
C        0.73570000      -2.12090000      -1.43700000
O        0.31880000      -2.83990000      -0.30120000
H        1.20630000       1.77690000      -0.08710000
H       -0.45210000       1.96360000      -0.67500000
H       -0.14030000       1.85380000       1.06310000
H        0.61300000      -0.51890000       0.81960000
H       -1.00570000      -0.35470000       0.15910000
H       -0.08100000      -0.16380000      -2.13740000
H        2.75270000      -2.06730000      -2.46620000
H        2.82030000      -2.05570000      -0.67430000
H        0.31750000      -2.55020000      -2.35570000
H        0.46380000      -3.77700000      -0.46220000
