18
Properties=species:S:1:pos:R:3 gdb_41030=T pbc="F F F"
C        0.01510000       1.52510000      -0.19550000
C        1.52300000       1.54850000       0.15940000
C        1.37820000       0.09020000       0.57860000
C        2.35700000      -0.88130000       1.30430000
C        1.46560000      -2.04460000       0.88550000
C        1.61360000      -1.06560000      -0.31390000
C        0.38070000      -0.72450000      -1.16310000
N       -0.13990000       0.05310000       0.07070000
O        3.09140000      -1.00800000      -0.04100000
H       -0.59980000       2.08910000       0.51120000
H       -0.26620000       1.81430000      -1.21190000
H        2.23040000       1.71720000      -0.65760000
H        1.77590000       2.22730000       0.97690000
H        3.01660000      -0.75360000       2.16620000
H        1.97830000      -2.99800000       0.75960000
H        0.47740000      -2.12430000       1.34060000
H        0.55080000      -0.07280000      -2.02500000
H       -0.25460000      -1.56610000      -1.44560000
