19
Properties=species:S:1:pos:R:3 gdb_84624=T pbc="F F F"
C       -0.12130000       1.55640000       0.01930000
C        0.01280000       0.02390000       0.01200000
C        0.76090000      -0.46460000      -1.21320000
C        1.88140000      -1.17820000      -1.08960000
C        2.35780000      -1.55510000       0.30570000
C        1.10800000      -2.00210000       1.13130000
C        0.74670000      -0.48810000       1.28190000
C        2.26070000      -0.25070000       1.12600000
O        3.04550000       0.53620000       1.56790000
H        0.86110000       2.03610000       0.06330000
H       -0.63050000       1.90690000      -0.88410000
H       -0.70240000       1.89140000       0.88460000
H       -1.00290000      -0.40020000       0.00740000
H        0.36830000      -0.19030000      -2.18870000
H        2.46200000      -1.49820000      -1.94840000
H        3.27610000      -2.14030000       0.32450000
H        0.38690000      -2.62560000       0.59920000
H        1.37760000      -2.45660000       2.08730000
H        0.26480000      -0.13790000       2.19720000
