19
Properties=species:S:1:pos:R:3 gdb_118316=T pbc="F F F"
C       -0.32440000       1.51810000       0.10790000
C       -0.02180000       0.03620000       0.11260000
N        0.13240000      -0.67280000       1.16000000
N        0.08970000      -0.59720000      -1.14830000
C        0.25300000       0.14080000      -2.41420000
C        1.68700000       0.15020000      -2.97270000
O        2.00270000      -0.97760000      -3.74730000
C        0.05660000      -1.97540000      -1.21030000
O        0.29420000      -2.60790000      -2.22290000
H        0.49890000       2.09820000      -0.32080000
H       -1.22730000       1.74830000      -0.46660000
H       -0.47300000       1.85480000       1.13500000
H       -0.02710000      -0.11670000       1.99670000
H       -0.40230000      -0.31980000      -3.15960000
H       -0.08700000       1.16270000      -2.25680000
H        1.79040000       1.02610000      -3.62630000
H        2.39010000       0.29070000      -2.13240000
H        1.55580000      -1.73970000      -3.34640000
H       -0.22040000      -2.43810000      -0.25730000
