17
Properties=species:S:1:pos:R:3 gdb_18327=T pbc="F F F"
O       -0.15910000       0.21710000       0.55170000
C       -0.11060000       1.35320000       0.15800000
C       -1.30310000       2.28230000      -0.11450000
C       -0.69070000       3.46250000      -0.89740000
N        0.74460000       3.50010000      -0.56610000
C        1.11590000       4.03960000       0.77330000
C        1.88920000       2.73360000       1.08550000
C        1.16970000       2.14060000      -0.15370000
H       -2.09910000       1.74670000      -0.63630000
H       -1.70970000       2.59370000       0.85560000
H       -0.79940000       3.30110000      -1.97630000
H       -1.15190000       4.42590000      -0.66470000
H        1.69660000       4.96560000       0.72730000
H        0.25810000       4.20200000       1.44120000
H        2.96700000       2.81990000       0.94250000
H        1.69120000       2.24710000       2.04150000
H        1.78120000       1.58500000      -0.87340000
