18
Properties=species:S:1:pos:R:3 gdb_72878=T pbc="F F F"
O        0.08110000       1.44330000      -0.42180000
C        0.01250000       0.10870000      -0.03470000
C        0.48150000      -0.98510000      -1.03930000
C       -0.92400000      -1.66200000      -0.95960000
C       -1.38200000      -0.59670000       0.07390000
N       -1.04740000      -0.91270000       1.46250000
C        0.24890000      -0.23050000       1.46990000
C       -1.64050000      -1.66380000       2.41590000
O       -1.17480000      -1.87360000       3.51770000
H        1.00840000       1.68890000      -0.51770000
H        0.69900000      -0.56310000      -2.02300000
H        1.33120000      -1.59130000      -0.71620000
H       -1.47950000      -1.60860000      -1.89870000
H       -0.94650000      -2.69030000      -0.59430000
H       -2.33410000      -0.08520000      -0.07840000
H        1.09980000      -0.87450000       1.71500000
H        0.26140000       0.65660000       2.11250000
H       -2.61850000      -2.06360000       2.07560000
