16
Properties=species:S:1:pos:R:3 gdb_127547=T pbc="F F F"
C        0.00990000       1.43860000      -0.00080000
N        0.02130000      -0.01770000       0.03320000
N       -0.02300000      -0.64840000      -1.16320000
C       -0.01460000      -1.94040000      -1.17630000
C        0.03910000      -2.82590000      -0.00480000
N        0.04660000      -4.11660000      -0.03780000
C        0.08440000      -2.07910000       1.23150000
C        0.07400000      -0.72290000       1.20630000
O        0.11260000       0.08610000       2.28960000
H        0.91400000       1.84890000       0.45780000
H       -0.03370000       1.72210000      -1.05080000
H       -0.86050000       1.83680000       0.52820000
H       -0.05190000      -2.38730000      -2.16740000
H        0.00940000      -4.44140000      -1.00620000
H        0.12640000      -2.61310000       2.17380000
H        0.14910000      -0.46360000       3.08030000
