16
Properties=species:S:1:pos:R:3 gdb_13686=T pbc="F F F"
C        0.30160000       1.30470000      -0.32300000
C        0.15570000      -0.09830000       0.21030000
O        1.34230000      -0.78260000       0.62980000
C        0.33770000      -0.50790000       1.61390000
C        0.73390000       0.42800000       2.72530000
O        1.48890000      -0.27100000       3.72540000
C        2.82010000      -0.38770000       3.51660000
O        3.53150000      -0.98320000       4.26680000
H        0.98520000       1.90810000       0.27700000
H        0.69140000       1.27290000      -1.34540000
H       -0.67310000       1.80300000      -0.35300000
H       -0.51480000      -0.72810000      -0.37800000
H       -0.19750000      -1.39330000       1.96050000
H        1.31000000       1.27520000       2.34180000
H       -0.14970000       0.81100000       3.24300000
H        3.15880000       0.12640000       2.59860000
