20
Properties=species:S:1:pos:R:3 gdb_85054=T pbc="F F F"
C       -0.03400000       1.57520000      -0.16620000
C       -0.01630000       0.05570000       0.03510000
N        0.68890000      -0.62950000      -1.04830000
C        1.98070000      -0.96240000      -0.76330000
O        2.83200000      -1.33700000      -1.54440000
C        2.19910000      -0.68390000       0.73370000
O        2.99460000       0.49210000       0.84930000
C        0.78380000      -0.44430000       1.27630000
C        0.69860000       0.42380000       2.52880000
H        0.98420000       1.97260000      -0.17340000
H       -0.51540000       1.82940000      -1.11670000
H       -0.59690000       2.06770000       0.63210000
H       -1.04840000      -0.31060000       0.08910000
H        0.39770000      -0.55380000      -2.01210000
H        2.69500000      -1.53480000       1.21850000
H        3.75720000       0.36420000       0.27150000
H        0.38510000      -1.43880000       1.51060000
H        1.15770000       1.40100000       2.37110000
H       -0.34320000       0.57150000       2.83210000
H        1.22150000      -0.05730000       3.36110000
