23
Properties=species:S:1:pos:R:3 gdb_101444=T pbc="F F F"
C       -0.20950000       1.49570000       0.03690000
C       -0.05920000      -0.02520000      -0.04350000
C        0.76740000      -0.48330000      -1.24750000
O        2.10060000       0.02910000      -1.22390000
C        0.80860000      -2.00590000      -1.35300000
O       -0.50760000      -2.58890000      -1.48740000
C       -0.13150000      -3.28710000      -2.69380000
C        1.29020000      -2.68050000      -2.66900000
C        1.69730000      -1.80750000      -3.84900000
H        0.76960000       1.98280000       0.04670000
H       -0.76220000       1.88140000      -0.82680000
H       -0.75140000       1.79330000       0.93950000
H        0.41910000      -0.40540000       0.87220000
H       -1.03930000      -0.51090000      -0.10140000
H        0.32430000      -0.06960000      -2.16040000
H        2.50540000      -0.25210000      -0.39500000
H        1.31660000      -2.39910000      -0.45590000
H       -0.19310000      -4.37540000      -2.57060000
H       -0.75580000      -2.99080000      -3.54690000
H        2.06530000      -3.42780000      -2.48110000
H        0.89930000      -1.11450000      -4.13470000
H        2.58390000      -1.21480000      -3.60950000
H        1.92020000      -2.42870000      -4.72310000
