15
Properties=species:S:1:pos:R:3 gdb_56468=T pbc="F F F"
C       -1.09980000       1.48950000      -0.51170000
C        0.04210000       0.53740000      -0.10180000
C       -0.45650000      -0.67500000       0.54320000
N       -0.82160000      -1.66490000       1.01750000
C        0.97180000       0.25750000      -1.32230000
O        1.31370000       1.16730000      -2.02900000
N        1.36440000      -1.06500000      -1.47990000
C        2.22610000      -1.57790000      -2.45700000
O        2.78400000      -0.95120000      -3.31050000
H       -0.66390000       2.34660000      -1.02580000
H       -1.79800000       0.98960000      -1.18740000
H       -1.64780000       1.82830000       0.36950000
H        0.68510000       1.05420000       0.62270000
H        0.97750000      -1.74120000      -0.83420000
H        2.32750000      -2.67380000      -2.32990000
