17
Properties=species:S:1:pos:R:3 gdb_128687=T pbc="F F F"
C       -0.07300000       1.38910000      -0.01180000
O       -0.03000000      -0.03360000      -0.04480000
C       -1.22460000      -0.65220000      -0.01360000
N       -2.37580000      -0.00360000       0.03200000
N       -3.30200000      -1.01390000       0.05140000
C       -2.72620000      -2.23360000       0.02090000
O       -3.51880000      -3.32760000       0.04220000
C       -1.35620000      -2.06740000      -0.02210000
C       -0.27740000      -3.10150000      -0.06540000
H        0.96540000       1.72270000      -0.03980000
H       -0.62100000       1.78520000      -0.87330000
H       -0.56100000       1.74610000       0.90130000
H       -4.28220000      -0.80050000       0.09060000
H       -2.96060000      -4.11000000      -0.01580000
H        0.19490000      -3.17700000      -1.05240000
H        0.51640000      -2.87570000       0.65400000
H       -0.66200000      -4.09780000       0.18630000
