21
Properties=species:S:1:pos:R:3 gdb_89440=T pbc="F F F"
C       -0.27270000       1.53240000      -0.02260000
C        0.05650000       0.04160000      -0.03620000
O        0.76120000      -0.33490000      -1.23170000
C        2.05890000      -0.81160000      -0.87240000
C        2.63240000      -1.60810000      -2.01720000
C        2.90720000       0.35160000      -0.25090000
C        2.41900000      -0.10450000       1.12480000
C        0.93760000      -0.45850000       1.10210000
C        1.92920000      -1.42960000       0.55220000
H        0.63030000       2.14440000       0.04190000
H       -0.81590000       1.80880000      -0.93080000
H       -0.90720000       1.76860000       0.83900000
H       -0.88910000      -0.52110000      -0.02690000
H        2.72720000      -0.98070000      -2.90910000
H        3.62220000      -1.99630000      -1.76090000
H        1.97720000      -2.45000000      -2.26130000
H        3.98030000       0.16740000      -0.36420000
H        2.67440000       1.36140000      -0.60170000
H        2.92560000       0.06550000       2.06770000
H        0.47980000      -0.65520000       2.06510000
H        2.08360000      -2.45380000       0.86430000
