17
Properties=species:S:1:pos:R:3 gdb_75168=T pbc="F F F"
C       -0.01900000       1.50570000       0.03490000
C       -0.00730000       0.01540000      -0.00940000
C       -0.02900000      -0.80770000      -1.06340000
C       -0.00450000      -2.24860000      -0.64240000
N        0.03470000      -2.14650000       0.81740000
C        0.06680000      -3.23680000       1.64170000
O        0.09960000      -3.20370000       2.85320000
C        0.03390000      -0.78240000       1.23600000
N        0.06160000      -0.30420000       2.41040000
H        0.87120000       1.87850000       0.55190000
H       -0.05700000       1.93730000      -0.96790000
H       -0.87800000       1.86280000       0.61210000
H       -0.06030000      -0.51740000      -2.10550000
H       -0.89420000      -2.79720000      -0.98100000
H        0.87500000      -2.78130000      -1.02960000
H        0.05960000      -4.18580000       1.07000000
H        0.08710000      -1.05230000       3.10370000
