17
Properties=species:S:1:pos:R:3 gdb_23421=T pbc="F F F"
O       -0.20960000       1.31260000      -0.04590000
N       -0.04050000      -0.07110000       0.12010000
C       -1.14260000      -0.69210000      -0.00680000
C       -2.54610000      -0.15110000      -0.20890000
N       -3.44370000      -1.14650000       0.41610000
C       -2.74790000      -2.43240000       0.39680000
C       -2.72500000      -3.15080000      -0.96860000
O       -1.32440000      -2.84780000      -1.16210000
C       -1.23060000      -2.18530000       0.12570000
H        0.68050000       1.64790000       0.10770000
H       -2.67450000       0.83960000       0.22990000
H       -2.76370000      -0.06170000      -1.28120000
H       -3.60750000      -0.87730000       1.37950000
H       -3.03260000      -3.04570000       1.25130000
H       -2.90330000      -4.23240000      -0.93780000
H       -3.36500000      -2.69760000      -1.73450000
H       -0.45800000      -2.62310000       0.76150000
