14
Properties=species:S:1:pos:R:3 gdb_1048=T pbc="F F F"
C       -0.03640000       1.41220000       0.01010000
O        0.00810000       0.00100000       0.00320000
C       -1.17480000      -0.65980000       0.01120000
C       -1.37080000      -2.01950000       0.00950000
C       -2.78230000      -2.22870000       0.02000000
C       -3.39570000      -1.00360000       0.02760000
N       -2.40000000      -0.03970000       0.02220000
H        0.99930000       1.75460000       0.00330000
H       -0.54550000       1.80860000      -0.88030000
H       -0.53110000       1.80030000       0.91220000
H       -0.58990000      -2.76210000       0.00180000
H       -3.28420000      -3.18410000       0.02170000
H       -4.43450000      -0.71870000       0.03650000
H       -2.55630000       0.95130000       0.02550000
