16
Properties=species:S:1:pos:R:3 gdb_3137=T pbc="F F F"
O        0.09060000       1.35800000      -0.28930000
C        0.05340000       0.05390000       0.27330000
C       -1.33700000      -0.50700000       0.28540000
C       -2.46850000      -0.20080000       1.28240000
C       -2.99730000      -1.66160000       1.08060000
C       -1.85630000      -1.90470000       0.08190000
N       -1.89090000      -0.92890000      -1.00470000
H       -0.25410000       1.27250000      -1.18560000
H        0.71380000      -0.63780000      -0.27090000
H        0.43640000       0.15360000       1.29450000
H       -2.11020000      -0.02820000       2.30010000
H       -3.13520000       0.62180000       1.00460000
H       -2.91150000      -2.26140000       1.98960000
H       -4.00900000      -1.78080000       0.67850000
H       -1.32570000      -2.83500000      -0.08870000
H       -2.82940000      -0.56750000      -1.16860000
