23
Properties=species:S:1:pos:R:3 gdb_104153=T pbc="F F F"
C       -0.27700000       1.46900000       0.08600000
C        0.07320000      -0.02180000       0.06570000
C        0.97170000      -0.48790000       1.23430000
C        2.33740000       0.21490000       1.23540000
O        0.30640000      -0.18540000       2.48180000
C        0.01400000      -1.37550000       3.19780000
C        0.56330000      -2.50520000       2.36320000
C        0.46400000      -3.93270000       2.79320000
C        1.10280000      -1.99190000       1.26170000
H        0.59970000       2.10000000      -0.08950000
H       -1.00980000       1.70290000      -0.69240000
H       -0.70500000       1.74390000       1.05360000
H       -0.84910000      -0.61250000       0.10870000
H        0.56670000      -0.28270000      -0.87960000
H        2.21760000       1.29270000       1.37140000
H        2.95440000      -0.16610000       2.05340000
H        2.86750000       0.04260000       0.29240000
H        0.47610000      -1.33750000       4.19830000
H       -1.07350000      -1.47190000       3.35550000
H        0.96600000      -4.09330000       3.75580000
H       -0.58220000      -4.23270000       2.93360000
H        0.91430000      -4.60580000       2.05930000
H        1.57830000      -2.54710000       0.46160000
