22
Properties=species:S:1:pos:R:3 gdb_78306=T pbc="F F F"
C        0.12040000       1.55740000      -0.05910000
C       -0.03670000       0.05540000      -0.05840000
C        0.60030000      -0.76670000      -1.12270000
N        1.19970000      -0.69300000       0.24230000
C        1.03780000      -2.13220000       0.63200000
C       -0.33440000      -2.63250000       0.10360000
C        0.30130000      -2.27100000      -1.27030000
C       -0.24740000      -2.76310000      -2.58920000
C        1.64050000      -2.81330000      -0.63140000
H        1.07970000       1.84740000      -0.49620000
H       -0.68260000       2.03120000      -0.63420000
H        0.08420000       1.95040000       0.96250000
H       -0.96900000      -0.28820000       0.37800000
H        1.14340000      -0.27910000      -1.93100000
H        1.38930000      -2.33450000       1.64300000
H       -0.42850000      -3.71410000       0.22110000
H       -1.26590000      -2.16100000       0.41930000
H       -1.23850000      -2.33960000      -2.78770000
H        0.40680000      -2.47620000      -3.42080000
H       -0.34030000      -3.85390000      -2.59930000
H        2.58360000      -2.40450000      -1.00250000
H        1.67860000      -3.90390000      -0.57350000
