18
Properties=species:S:1:pos:R:3 gdb_87610=T pbc="F F F"
C       -0.09930000       1.51920000      -0.08530000
C       -0.01450000       0.02070000       0.06040000
N        1.27420000      -0.61090000      -0.19270000
C        0.74110000      -0.63690000       1.18550000
C        1.40890000       0.01870000       2.33480000
C        1.22350000      -0.67690000       3.46120000
C        0.41790000      -1.93410000       3.24070000
C        0.19710000      -1.93620000       1.72370000
O       -0.28190000      -2.81870000       1.05280000
H        0.83770000       1.99630000       0.21100000
H       -0.29540000       1.78640000      -1.12920000
H       -0.91120000       1.92670000       0.52590000
H       -0.89680000      -0.53510000      -0.25560000
H        1.12530000      -1.53960000      -0.59010000
H        1.96390000       0.94350000       2.24610000
H        1.60100000      -0.39240000       4.43610000
H        0.92650000      -2.85250000       3.55750000
H       -0.55090000      -1.92660000       3.75780000
