19
Properties=species:S:1:pos:R:3 gdb_63046=T pbc="F F F"
C       -0.02740000       1.52020000      -0.00130000
C        0.06090000       0.00090000      -0.00830000
O       -1.24000000      -0.57600000      -0.10080000
C        1.05730000      -0.62720000      -1.01580000
N        2.32400000       0.08400000      -0.61710000
C        2.23730000      -0.79480000       0.58000000
C        1.47860000      -1.92100000      -0.14230000
N        0.60820000      -2.09980000       1.02380000
C        0.78730000      -0.63510000       1.21430000
H        0.96040000       1.97130000       0.09350000
H       -0.47410000       1.88820000      -0.93420000
H       -0.66310000       1.84610000       0.82790000
H       -1.67770000      -0.18690000      -0.86470000
H        0.78910000      -0.65130000      -2.07240000
H        3.08750000      -0.27700000      -1.18960000
H        3.09310000      -0.91700000       1.24070000
H        1.92030000      -2.78510000      -0.64090000
H       -0.35670000      -2.34200000       0.80500000
H        0.59860000      -0.21900000       2.20390000
