18
Properties=species:S:1:pos:R:3 gdb_122766=T pbc="F F F"
C       -0.17960000       1.54310000       0.01320000
C       -0.04210000       0.03090000       0.00240000
O       -1.33900000      -0.54000000       0.01190000
C       -1.32470000      -1.94670000       0.00350000
C       -2.77580000      -2.41000000       0.01500000
C       -2.91570000      -3.90890000       0.00810000
O       -2.00190000      -4.69510000      -0.00540000
C       -4.31370000      -4.40040000       0.01850000
N       -5.40770000      -4.77460000       0.02680000
H        0.80780000       2.01390000       0.00610000
H       -0.73370000       1.88510000      -0.86550000
H       -0.71570000       1.87410000       0.90700000
H        0.50990000      -0.30400000      -0.89160000
H        0.52760000      -0.31500000       0.88100000
H       -0.80850000      -2.33630000      -0.88800000
H       -0.79120000      -2.34670000       0.88000000
H       -3.30150000      -2.01470000       0.89460000
H       -3.31860000      -2.00510000      -0.84970000
