17
Properties=species:S:1:pos:R:3 gdb_9368=T pbc="F F F"
O        0.13900000       1.16350000      -0.43130000
C       -0.15870000      -0.17930000      -0.06460000
C       -1.64490000      -0.22700000       0.25710000
N       -2.42810000       0.21600000      -0.88220000
C       -3.47840000      -0.47120000      -1.38240000
O       -3.89900000      -1.52130000      -0.91440000
C       -4.16500000       0.13480000      -2.61270000
O       -5.20950000      -0.69380000      -3.02670000
H        1.04480000       1.20240000      -0.75090000
H        0.06470000      -0.87470000      -0.88690000
H        0.41710000      -0.49350000       0.81860000
H       -1.96040000      -1.24340000       0.49960000
H       -1.84380000       0.41200000       1.12710000
H       -2.11510000       1.05860000      -1.33960000
H       -4.53140000       1.14160000      -2.35360000
H       -3.41780000       0.26260000      -3.41260000
H       -5.20470000      -1.42200000      -2.38110000
