14
Properties=species:S:1:pos:R:3 gdb_87620=T pbc="F F F"
O        0.03510000       1.37760000      -0.05660000
C        0.05980000       0.00060000       0.03870000
C       -0.36780000      -0.72340000       1.26370000
C       -1.28650000      -0.74630000       0.04220000
N       -2.47310000       0.05500000       0.00860000
C       -3.28040000      -0.60800000      -0.71910000
O       -2.85880000      -1.80540000      -1.22150000
C       -1.53640000      -1.96730000      -0.75410000
O       -0.87210000      -2.92200000      -1.01260000
H       -0.87030000       1.66930000       0.11700000
H        0.84350000      -0.44180000      -0.56820000
H        0.11270000      -1.66630000       1.50230000
H       -0.73450000      -0.14250000       2.10240000
H       -4.28690000      -0.31890000      -0.99260000
