19
Properties=species:S:1:pos:R:3 gdb_39267=T pbc="F F F"
C       -0.04790000       1.45220000       0.04360000
C        1.33590000       0.80410000      -0.05800000
C        2.19410000       0.44110000      -1.24370000
O        2.30390000      -1.00150000      -1.31160000
C        1.09310000      -1.72490000      -1.04020000
C        0.87540000      -2.01360000       0.48350000
O       -0.01520000      -0.97920000       0.98140000
C        0.06970000      -0.02170000      -0.04390000
C       -0.11880000      -0.82900000      -1.31600000
H       -0.25980000       1.91320000       1.00170000
H       -0.48850000       1.96540000      -0.80630000
H        1.85600000       0.78970000       0.89530000
H        1.79590000       0.84130000      -2.18570000
H        3.22350000       0.79450000      -1.14820000
H        1.15920000      -2.64730000      -1.62120000
H        0.39560000      -2.98210000       0.65440000
H        1.83440000      -1.97990000       1.01210000
H       -0.05060000      -0.27790000      -2.25350000
H       -1.06360000      -1.37810000      -1.28580000
