17
Properties=species:S:1:pos:R:3 gdb_75052=T pbc="F F F"
C       -0.11190000       1.56690000       0.03490000
C       -0.01020000       0.07090000      -0.02730000
C        0.10400000      -0.59290000      -1.17940000
N        0.20070000      -1.98390000      -1.27060000
C        0.19220000      -2.86180000      -0.20260000
N        0.27920000      -4.13400000      -0.26410000
C        0.06420000      -2.21140000       1.17910000
O        0.04690000      -2.89210000       2.17110000
C       -0.04000000      -0.68970000       1.26820000
H        0.70650000       2.00070000       0.62470000
H       -0.07980000       2.01420000      -0.96260000
H       -1.04560000       1.88610000       0.51690000
H        0.12990000      -0.08710000      -2.13790000
H        0.28390000      -2.38910000      -2.18970000
H        0.36020000      -4.45770000      -1.23160000
H        0.76960000      -0.36060000       1.93640000
H       -0.96020000      -0.47290000       1.83080000
