23
Properties=species:S:1:pos:R:3 gdb_95751=T pbc="F F F"
C       -0.01340000       1.54270000       0.02140000
C       -0.00370000       0.01120000      -0.00430000
O       -1.35370000      -0.47860000       0.05080000
C        0.69520000      -0.51820000      -1.27350000
C        0.77500000      -2.04980000      -1.29230000
C        1.46990000      -2.57750000      -0.02930000
C        0.77280000      -2.07610000       1.24050000
O        1.48400000      -2.44620000       2.41890000
C        0.68230000      -0.55070000       1.25020000
H        1.00290000       1.94950000       0.02780000
H       -0.52500000       1.94140000      -0.86340000
H       -0.53850000       1.90370000       0.91040000
H       -1.82460000      -0.12490000      -0.71170000
H        0.15840000      -0.15020000      -2.15830000
H        1.70550000      -0.09170000      -1.32550000
H       -0.24080000      -2.45760000      -1.34770000
H        1.30480000      -2.38930000      -2.18880000
H        1.48960000      -3.67530000      -0.03440000
H        2.51530000      -2.24130000      -0.00180000
H       -0.24900000      -2.48280000       1.26950000
H        1.51550000      -3.40750000       2.45290000
H        1.69820000      -0.14390000       1.32000000
H        0.13690000      -0.22370000       2.14090000
