16
Properties=species:S:1:pos:R:3 gdb_54444=T pbc="F F F"
N        0.07560000       1.15910000      -0.52390000
C       -0.00030000      -0.01130000       0.17570000
O        0.93490000      -0.46240000       0.81170000
C       -1.30760000      -0.72730000       0.08400000
C       -1.73220000      -1.64150000       1.18480000
C       -1.40970000      -2.27370000      -0.15000000
C       -2.52120000      -2.00780000      -1.11960000
O       -3.09070000      -2.67980000      -1.92960000
C       -2.49820000      -0.47280000      -0.85860000
H        0.91180000       1.70970000      -0.41210000
H       -0.74310000       1.60760000      -0.89580000
H       -0.97460000      -1.82010000       1.93950000
H       -2.75650000      -1.60660000       1.54420000
H       -0.60710000      -2.99300000      -0.25040000
H       -3.38910000      -0.01210000      -0.42190000
H       -2.24130000       0.04070000      -1.79050000
