19
Properties=species:S:1:pos:R:3 gdb_7782=T pbc="F F F"
C        0.03480000       1.51530000       0.08820000
C        0.00220000       0.00390000      -0.07240000
C        0.76420000      -0.50260000      -1.29320000
C        0.80550000      -2.03200000      -1.28830000
C        1.44640000      -2.51390000       0.01840000
C        0.84600000      -1.86810000       1.24580000
N        0.73900000      -2.50180000       2.33720000
O        0.52720000      -0.54030000       1.16030000
H        1.06680000       1.86890000       0.17550000
H       -0.42780000       1.99920000      -0.77710000
H       -0.50850000       1.81670000       0.98740000
H       -1.04410000      -0.33070000      -0.15160000
H        0.27600000      -0.12080000      -2.19640000
H        1.78450000      -0.09720000      -1.27830000
H       -0.21480000      -2.42780000      -1.37390000
H        1.36630000      -2.41430000      -2.14670000
H        1.38450000      -3.59580000       0.14380000
H        2.51320000      -2.25040000       0.00690000
H        0.34880000      -1.88510000       3.05400000
