19
Properties=species:S:1:pos:R:3 gdb_115960=T pbc="F F F"
C        0.29290000       1.38510000       0.03540000
O        0.25550000      -0.03090000       0.02210000
C        0.45910000      -0.58540000      -1.24820000
O        1.75000000      -0.31290000      -1.75750000
C        2.66320000      -1.30890000      -1.28580000
C        1.83020000      -2.58800000      -1.11530000
O        1.68540000      -3.04530000       0.24600000
C        0.26310000      -2.77750000       0.22680000
C        0.36060000      -2.12120000      -1.16490000
H        1.26470000       1.76350000      -0.30030000
H       -0.49130000       1.80870000      -0.61040000
H        0.11360000       1.69900000       1.06570000
H       -0.24290000      -0.13630000      -1.96540000
H        3.45670000      -1.39550000      -2.03250000
H        3.10150000      -1.03180000      -0.31910000
H        2.13800000      -3.40150000      -1.78060000
H       -0.31730000      -3.70800000       0.23740000
H       -0.04990000      -2.12870000       1.04670000
H       -0.28050000      -2.52400000      -1.94770000
