18
Properties=species:S:1:pos:R:3 gdb_89048=T pbc="F F F"
N        0.35640000      -0.02680000       0.53490000
H       -0.15480000      -0.84680000       0.84510000
H        1.89700000      -0.17930000       1.36480000
H        0.24280000       0.04290000      -0.47050000
C       -0.14290000       1.16670000       1.19830000
C       -1.41010000       1.12220000       2.02780000
C       -0.06500000       1.14200000       2.70210000
O        0.34740000      -0.06640000       3.27260000
C        1.60980000      -0.02210000       3.91370000
C        2.89020000       0.05430000       3.05940000
O        2.81540000      -0.09980000       1.74400000
O        3.93950000       0.21990000       3.62960000
H        0.11350000       2.08000000       0.67280000
H       -2.03520000       2.00580000       2.09530000
H       -1.95060000       0.18070000       2.05580000
H        0.23910000       2.03280000       3.24860000
H        1.66120000       0.81350000       4.62370000
H        1.68110000      -0.94600000       4.49530000
