21
Properties=species:S:1:pos:R:3 gdb_115665=T pbc="F F F"
C        0.04960000       1.62540000       0.00780000
C        0.09210000       0.09490000       0.06490000
C        0.63230000      -0.52230000      -1.21830000
C        2.15420000      -0.42110000      -1.45860000
O        2.31750000      -1.85230000      -1.39810000
C        0.88930000      -2.06550000      -1.24090000
C        0.53950000      -2.85310000      -0.07170000
C        0.24130000      -3.51710000       0.88850000
C       -0.11240000      -4.32390000       2.04690000
H        1.04630000       2.04790000      -0.16160000
H       -0.59920000       1.97530000      -0.80290000
H       -0.33110000       2.04490000       0.94390000
H        0.70920000      -0.23190000       0.91020000
H       -0.91370000      -0.29850000       0.25560000
H        0.03300000      -0.19480000      -2.07280000
H        2.46080000      -0.01530000      -2.43070000
H        2.72210000       0.08600000      -0.66740000
H        0.48010000      -2.54790000      -2.13950000
H       -1.19890000      -4.36250000       2.18310000
H        0.24370000      -5.35400000       1.93610000
H        0.32320000      -3.91700000       2.96590000
