16
Properties=species:S:1:pos:R:3 gdb_84299=T pbc="F F F"
O        0.19630000       1.38000000      -0.22790000
C        0.04200000      -0.02010000      -0.04790000
C        0.62800000      -0.52820000       1.25460000
C       -0.21980000      -1.28920000       1.95600000
C       -1.52300000      -1.39920000       1.24860000
O       -2.50060000      -2.01680000       1.59570000
C       -1.39770000      -0.53710000       0.00850000
C       -2.55800000       0.27030000      -0.46520000
N       -2.16240000      -0.94000000      -1.18550000
H       -0.24640000       1.81880000       0.50800000
H        0.57840000      -0.46170000      -0.89790000
H        1.63970000      -0.26190000       1.54110000
H       -0.03380000      -1.77140000       2.90760000
H       -3.49460000       0.18450000       0.07830000
H       -2.33800000       1.24100000      -0.90050000
H       -1.62870000      -0.68030000      -2.01390000
