17
Properties=species:S:1:pos:R:3 gdb_33871=T pbc="F F F"
N        0.05510000      -1.09530000       0.00860000
C        0.02370000       0.06050000      -0.01450000
C       -0.06180000       1.50130000      -0.04670000
C        0.42260000       2.24170000      -1.25210000
N        1.21630000       2.26650000      -0.02860000
C        1.03550000       3.38860000       0.89260000
C        0.06010000       4.50830000       0.62260000
C       -0.34440000       3.35550000       1.50810000
C       -1.08610000       2.16880000       0.88870000
H        0.87250000       1.68490000      -2.06880000
H       -0.13750000       3.11870000      -1.55970000
H        1.92240000       3.59520000       1.47900000
H        0.27310000       5.45320000       1.11130000
H       -0.39750000       4.62430000      -0.35290000
H       -0.49540000       3.54310000       2.56480000
H       -1.99580000       2.45720000       0.35300000
H       -1.37920000       1.46170000       1.66830000
