15
Properties=species:S:1:pos:R:3 gdb_28695=T pbc="F F F"
O       -0.80500000       1.03910000       0.21980000
C       -0.14150000      -0.12030000      -0.00480000
C        0.90970000      -0.50490000      -0.79340000
N        1.14830000      -1.85740000      -0.61750000
C        0.26630000      -2.26920000       0.25580000
C        0.15960000      -3.66450000       0.80850000
C       -1.15760000      -3.96780000       1.36000000
C       -2.24300000      -4.18040000       1.83080000
N       -0.54730000      -1.24280000       0.66830000
H       -0.42650000       1.71960000      -0.34520000
H        1.49660000       0.09630000      -1.47040000
H        0.41090000      -4.36520000       0.00490000
H        0.91810000      -3.81790000       1.58950000
H       -3.20050000      -4.39700000       2.23630000
H       -1.33300000      -1.31420000       1.29460000
