16
Properties=species:S:1:pos:R:3 gdb_131606=T pbc="F F F"
O        0.00560000       0.32950000       1.27060000
C       -0.13620000       0.28170000      -0.14640000
C       -1.41150000      -0.46180000      -0.59040000
O       -1.56580000      -0.38630000      -1.99720000
C       -1.44390000      -1.88620000      -0.11530000
C       -1.95630000      -3.03630000      -0.67500000
N       -1.70510000      -4.08350000       0.16020000
N       -1.06850000      -3.64810000       1.20990000
N       -0.90740000      -2.32210000       1.05120000
H       -0.63390000       0.96020000       1.61770000
H       -0.14690000       1.28470000      -0.58990000
H        0.74740000      -0.24550000      -0.52210000
H       -2.27680000       0.08190000      -0.18470000
H       -0.93550000      -0.99850000      -2.39530000
H       -2.48360000      -3.16220000      -1.60620000
H       -0.41770000      -1.75810000       1.73180000
