14
Properties=species:S:1:pos:R:3 gdb_66893=T pbc="F F F"
O        0.03220000       1.38480000      -0.11890000
C        0.05420000       0.02870000       0.00580000
C       -0.17130000      -0.85970000      -1.23250000
N        0.67540000      -2.03700000      -1.41100000
C        0.63330000      -2.62970000      -0.28960000
N       -0.16610000      -1.98470000       0.75160000
C       -1.05300000      -1.06410000      -0.05300000
C        0.63260000      -0.76350000       1.10270000
N        1.33450000      -0.46270000       2.09860000
H        0.07190000       1.76160000       0.76970000
H       -0.50200000      -0.33070000      -2.11750000
H        1.18550000      -3.52920000      -0.04420000
H       -2.12640000      -1.03530000       0.07570000
H        1.43160000      -1.25020000       2.74120000
