25
Properties=species:S:1:pos:R:3 gdb_52609=T pbc="F F F"
C        0.02950000       1.47610000      -0.02090000
C        0.00190000       0.01930000      -0.00960000
C       -0.02280000      -1.18550000      -0.00060000
C       -0.04290000      -2.65620000      -0.01750000
C       -1.51370000      -3.13650000      -0.02780000
C        0.64460000      -3.12150000      -1.32480000
C        0.74950000      -3.18120000       1.23510000
C        0.14110000      -2.70860000       2.56360000
C        0.93570000      -4.70630000       1.25590000
H        0.68970000       1.86930000       0.76030000
H        0.39010000       1.86150000      -0.98120000
H       -0.96830000       1.89600000       0.14910000
H       -2.02310000      -2.76240000      -0.92050000
H       -1.56870000      -4.22930000      -0.04200000
H       -2.06290000      -2.77290000       0.84370000
H        1.70820000      -2.86380000      -1.32120000
H        0.54980000      -4.20270000      -1.45860000
H        0.18320000      -2.63340000      -2.18760000
H        1.74660000      -2.72860000       1.15230000
H       -0.02540000      -1.62850000       2.56410000
H       -0.81590000      -3.20160000       2.76620000
H        0.81200000      -2.95040000       3.39430000
H        1.46610000      -5.07740000       0.37550000
H        1.52130000      -4.99450000       2.13520000
H       -0.02280000      -5.23250000       1.32140000
