18
Properties=species:S:1:pos:R:3 gdb_70690=T pbc="F F F"
C        0.08770000       1.50640000       0.00740000
C        0.05520000      -0.00800000      -0.01060000
C       -0.85830000      -0.71610000       0.99230000
C        0.62620000      -0.78670000       1.15590000
O        1.22170000      -2.03140000       0.88560000
C        1.80040000      -2.05730000      -0.37880000
O        0.84090000      -1.84190000      -1.41160000
C        0.18580000      -0.63600000      -1.36160000
N       -0.30730000      -0.09980000      -2.39540000
H        1.02920000       1.88690000      -0.40120000
H       -0.72560000       1.90670000      -0.60210000
H       -0.02030000       1.88330000       1.02900000
H       -1.43540000      -0.08390000       1.65780000
H       -1.34600000      -1.63130000       0.67790000
H        1.11330000      -0.23950000       1.95940000
H        2.59670000      -1.30260000      -0.47060000
H        2.20030000      -3.05890000      -0.54010000
H       -0.10800000      -0.67450000      -3.21660000
