15
Properties=species:S:1:pos:R:3 gdb_56529=T pbc="F F F"
C       -0.05550000       1.56660000       0.11720000
C       -0.01430000       0.04000000       0.02170000
O        0.70230000      -0.42380000       1.14840000
C       -1.38730000      -0.51370000       0.01730000
N       -2.44190000      -0.98400000       0.04870000
C        0.69350000      -0.45080000      -1.29170000
O        0.01640000      -0.06760000      -2.46250000
C        2.10130000      -0.01220000      -1.29510000
N        3.19050000       0.36920000      -1.34500000
H        0.96600000       1.95440000       0.12910000
H       -0.60650000       1.99510000      -0.72300000
H       -0.55390000       1.85930000       1.04270000
H        0.60840000      -1.38140000       1.21900000
H        0.67780000      -1.54680000      -1.28160000
H        0.20620000       0.85880000      -2.64960000
