19
Properties=species:S:1:pos:R:3 gdb_90568=T pbc="F F F"
C       -0.03560000       1.64540000       0.09760000
N        0.20290000       0.21110000       0.11160000
C        1.18260000      -0.39860000      -0.82230000
C        1.80580000      -1.18230000       0.33890000
C        2.31530000      -0.24320000       1.37360000
O        2.99270000       0.92390000       0.96530000
C        3.11930000       1.89210000       1.89770000
N        3.67210000       2.98540000       1.59590000
C        0.82120000      -0.42880000       1.25840000
H        0.87550000       2.26130000       0.11980000
H       -0.60310000       1.90570000      -0.80280000
H       -0.65420000       1.90900000       0.96230000
H        0.69740000      -1.02680000      -1.57590000
H        1.86070000       0.30810000      -1.31490000
H        2.07460000      -2.22980000       0.31660000
H        2.76580000      -0.72860000       2.23900000
H        2.70790000       1.61240000       2.87670000
H        3.69710000       3.59700000       2.40930000
H        0.21830000      -0.77320000       2.09440000
