16
Properties=species:S:1:pos:R:3 gdb_4922=T pbc="F F F"
C        0.10340000       1.40360000      -0.09450000
N       -0.01880000      -0.03680000       0.01040000
C        0.60330000      -0.66630000       1.06890000
C        1.07040000      -0.17320000       2.24860000
O        1.54700000      -1.24860000       2.97820000
C        1.35080000      -2.31920000       2.18490000
C        1.77810000      -3.64970000       2.69150000
N        0.79760000      -2.04190000       1.04300000
H        1.14780000       1.75500000      -0.11370000
H       -0.39900000       1.74370000      -1.00250000
H       -0.39430000       1.87950000       0.75830000
H        0.10000000      -0.54500000      -0.85380000
H        1.13550000       0.79340000       2.71170000
H        2.85280000      -3.66560000       2.90050000
H        1.25880000      -3.90110000       3.62210000
H        1.54960000      -4.40620000       1.94070000
