14
Properties=species:S:1:pos:R:3 gdb_57745=T pbc="F F F"
C        0.01940000       1.55570000       0.00680000
C        0.00800000       0.02040000       0.05000000
O        0.73090000      -0.49480000       1.15890000
C       -1.36170000      -0.50410000       0.01480000
C       -2.49830000      -0.92780000       0.02220000
C       -3.76400000      -1.39980000       0.02850000
C       -4.90400000      -1.82250000       0.03530000
C       -6.17880000      -2.29350000       0.04370000
N       -7.27050000      -2.69620000       0.05100000
H        1.05490000       1.90380000       0.02890000
H       -0.46470000       1.92530000      -0.90140000
H       -0.51240000       1.96890000       0.86970000
H        0.54110000      -0.36240000      -0.82910000
H        0.27930000      -0.21670000       1.96430000
