19
Properties=species:S:1:pos:R:3 gdb_76495=T pbc="F F F"
O        0.24950000       1.31860000       0.48660000
C        0.19020000      -0.07920000       0.32190000
C       -0.70170000      -0.81670000       1.29790000
O       -1.30440000      -0.07360000       2.31220000
C       -1.13400000      -0.61020000      -0.13610000
C       -2.37860000       0.18590000      -0.53750000
C       -2.87830000      -1.09870000      -1.26460000
O       -3.50880000      -0.99050000      -2.51300000
C       -1.43900000      -1.69230000      -1.17650000
H        0.99580000       1.51520000       1.06450000
H        1.10260000      -0.54220000      -0.05230000
H       -0.42840000      -1.81410000       1.63200000
H       -1.10970000       0.85290000       2.11220000
H       -2.99640000       0.58030000       0.27230000
H       -2.15250000       0.99310000      -1.24360000
H       -3.57130000      -1.65980000      -0.63240000
H       -2.93600000      -0.47660000      -3.09240000
H       -0.88700000      -1.53660000      -2.11200000
H       -1.33770000      -2.73970000      -0.87890000
