17
Properties=species:S:1:pos:R:3 gdb_2429=T pbc="F F F"
C       -0.06050000       1.47130000       0.00640000
C        0.03220000      -0.02520000      -0.01290000
C        0.91050000      -0.89020000      -0.91980000
C        0.03910000      -2.08830000      -0.45590000
C        0.38440000      -2.24030000       1.05070000
C       -0.28750000      -0.88100000       1.22860000
C       -1.08300000      -1.04660000      -0.04910000
H        0.86220000       1.92400000       0.38900000
H       -0.23550000       1.87340000      -0.99830000
H       -0.88310000       1.80950000       0.64610000
H        0.74030000      -0.64670000      -1.97340000
H        1.98960000      -0.94360000      -0.72560000
H       -0.09250000      -2.96200000      -1.09100000
H       -0.20040000      -3.03550000       1.52230000
H        1.44220000      -2.35450000       1.31790000
H       -0.60950000      -0.40780000       2.14840000
H       -2.13960000      -0.96220000      -0.26030000
