19
Properties=species:S:1:pos:R:3 gdb_47005=T pbc="F F F"
O       -0.01110000       0.00710000      -0.35820000
C       -0.01520000       1.14730000       0.01740000
O       -1.19490000       1.71630000       0.38540000
C       -1.27190000       3.01380000       1.00990000
C       -0.00550000       3.85630000       0.87400000
C        0.29680000       4.22350000      -0.59940000
C        1.14900000       3.03860000      -1.14000000
C        1.21920000       2.03740000       0.04620000
C        1.18300000       2.96570000       1.27080000
H       -2.13180000       3.51330000       0.55220000
H       -1.50310000       2.84390000       2.06890000
H       -0.12390000       4.73950000       1.50860000
H       -0.62140000       4.37170000      -1.17480000
H        0.85830000       5.16030000      -0.64900000
H        0.72650000       2.58200000      -2.03820000
H        2.16170000       3.36610000      -1.39190000
H        2.08590000       1.37890000      -0.00880000
H        2.11330000       3.53830000       1.34700000
H        1.03090000       2.43760000       2.21750000
