18
Properties=species:S:1:pos:R:3 gdb_90388=T pbc="F F F"
C       -0.26560000       1.51810000      -0.05040000
C        0.05860000       0.03580000      -0.00610000
N        1.21120000      -0.43730000      -0.85530000
C        1.71080000      -1.24130000       0.26810000
C        2.19590000      -0.30370000       1.35060000
C        2.80800000       0.97100000       1.08620000
N        3.32540000       1.99060000       0.90950000
C        0.70750000      -0.62840000       1.23050000
N        0.06220000      -1.18200000       2.36780000
H        0.61980000       2.12730000       0.13760000
H       -0.66600000       1.79340000      -1.03160000
H       -1.02790000       1.75930000       0.69950000
H       -0.84320000      -0.55070000      -0.23570000
H        0.89830000      -1.01800000      -1.62560000
H        2.10080000      -2.24630000       0.16130000
H        2.62170000      -0.82440000       2.20350000
H       -0.18450000      -0.46340000       3.04240000
H       -0.79060000      -1.66780000       2.10760000
