14
Properties=species:S:1:pos:R:3 gdb_13468=T pbc="F F F"
C       -0.40230000       1.41630000      -0.07370000
C        0.07400000      -0.00510000       0.11640000
O        0.36590000      -0.47940000       1.18750000
C        0.13200000      -0.84150000      -1.16060000
C        0.37280000      -2.34650000      -1.02120000
O       -0.97860000      -2.61750000      -1.54200000
C       -1.24950000      -1.29040000      -1.68390000
O       -2.24570000      -0.76840000      -2.06760000
H        0.32580000       1.97740000      -0.67140000
H       -1.34380000       1.41800000      -0.63450000
H       -0.53050000       1.90120000       0.89420000
H        0.70990000      -0.32630000      -1.93220000
H        1.12760000      -2.78550000      -1.67420000
H        0.47110000      -2.69650000       0.00590000
