21
Properties=species:S:1:pos:R:3 gdb_96221=T pbc="F F F"
C       -0.07430000       1.59500000      -0.05320000
C        0.00830000       0.06490000      -0.00990000
C        0.89010000      -0.48660000      -1.14710000
C        0.68010000      -1.97060000      -1.46850000
C        1.38790000      -2.95270000      -0.53360000
C        1.13350000      -2.84590000       0.94160000
C        0.72350000      -1.82550000       1.70610000
C        0.39320000      -0.40920000       1.39590000
O        0.38790000       0.37600000       2.32750000
H        0.91800000       2.04280000       0.06280000
H       -0.48830000       1.92460000      -1.01100000
H       -0.69880000       1.97780000       0.75490000
H       -1.00490000      -0.33890000      -0.16980000
H        0.65340000       0.09500000      -2.04510000
H        1.94920000      -0.28880000      -0.93240000
H       -0.39620000      -2.18610000      -1.47540000
H        1.03570000      -2.17060000      -2.48590000
H        1.14430000      -3.97710000      -0.84340000
H        2.47750000      -2.87220000      -0.67840000
H        1.38610000      -3.75820000       1.48230000
H        0.69160000      -1.98650000       2.78110000
