20
Properties=species:S:1:pos:R:3 gdb_7647=T pbc="F F F"
C       -0.77620000       1.05750000      -0.03500000
C        0.26500000      -0.03800000       0.12590000
C        1.45400000      -0.09800000      -0.87460000
C        2.41690000      -0.39550000       0.30260000
C        1.29000000       0.08290000       1.28860000
C        2.72950000      -1.86710000       0.50390000
C        3.83910000      -2.17950000       1.49340000
O        2.11770000      -2.74360000      -0.06620000
H       -0.30450000       2.04640000      -0.07950000
H       -1.35400000       0.92270000      -0.95620000
H       -1.48350000       1.06330000       0.80220000
H       -0.22070000      -1.01740000       0.16610000
H        1.40650000      -0.86310000      -1.65080000
H        1.65990000       0.87620000      -1.32840000
H        3.34160000       0.18650000       0.35180000
H        1.44910000       1.12170000       1.59320000
H        1.11610000      -0.51940000       2.18500000
H        3.70820000      -1.61270000       2.42150000
H        3.86440000      -3.24890000       1.70610000
H        4.80250000      -1.87260000       1.06880000
