19
Properties=species:S:1:pos:R:3 gdb_63781=T pbc="F F F"
C        0.34910000       1.43090000       0.08600000
C        0.06210000      -0.06350000       0.00150000
C       -1.42320000      -0.34300000      -0.23900000
C        0.97320000      -0.89770000      -0.97030000
C        1.38260000      -1.83650000       0.21060000
C        0.58470000      -0.93380000       1.18070000
O        1.83900000      -0.45340000       1.76310000
C        2.58930000      -1.29740000       0.96760000
O        3.76930000      -1.43560000       0.97540000
H        1.39900000       1.62290000       0.31900000
H        0.11330000       1.91840000      -0.86640000
H       -0.25920000       1.90550000       0.86400000
H       -1.74540000       0.08130000      -1.19560000
H       -1.63400000      -1.41820000      -0.26440000
H       -2.03760000       0.10060000       0.55230000
H        0.41830000      -1.41110000      -1.75790000
H        1.80460000      -0.35690000      -1.42720000
H        1.28300000      -2.91350000       0.09950000
H       -0.10060000      -1.27050000       1.95850000
