16
Properties=species:S:1:pos:R:3 gdb_42322=T pbc="F F F"
O        0.02630000      -0.09230000      -0.09330000
C       -0.05400000       1.10990000      -0.06880000
C        1.17250000       1.92470000       0.09850000
N        2.11680000       2.57910000       0.23110000
C       -1.32580000       1.91840000      -0.15480000
C       -2.57860000       1.10350000      -0.55120000
C       -3.56550000       1.37190000       0.60610000
O       -3.12270000       2.57730000       1.21860000
C       -1.71790000       2.51150000       1.24320000
H       -1.14920000       2.75070000      -0.84290000
H       -2.97460000       1.46130000      -1.50340000
H       -2.34180000       0.04320000      -0.65330000
H       -4.59700000       1.52210000       0.28130000
H       -3.54380000       0.54520000       1.33260000
H       -1.36550000       1.84620000       2.04890000
H       -1.32180000       3.51370000       1.41570000
