21
Properties=species:S:1:pos:R:3 gdb_6702=T pbc="F F F"
C       -0.04860000       1.55570000      -0.01950000
C        0.02880000       0.02430000       0.04800000
C        0.86760000      -0.42020000       1.25460000
C       -1.38700000      -0.58200000       0.05720000
C       -1.43150000      -2.10860000      -0.06810000
C       -2.88030000      -2.63220000      -0.14420000
C       -2.94990000      -4.08710000      -0.26210000
N       -2.98500000      -5.23850000      -0.35500000
H        0.95100000       1.99990000      -0.06340000
H       -0.60430000       1.89100000      -0.90150000
H       -0.55240000       1.96190000       0.86590000
H        0.53360000      -0.32730000      -0.86370000
H        1.01100000      -1.50430000       1.28510000
H        1.86050000       0.04020000       1.22690000
H        0.38960000      -0.11840000       2.19460000
H       -1.90190000      -0.27590000       0.97960000
H       -1.96140000      -0.14370000      -0.77040000
H       -0.89050000      -2.42750000      -0.96660000
H       -0.93240000      -2.58320000       0.78210000
H       -3.43970000      -2.33000000       0.74910000
H       -3.39980000      -2.18940000      -1.00220000
