22
Properties=species:S:1:pos:R:3 gdb_59570=T pbc="F F F"
C        0.18250000       1.30450000      -0.35050000
C       -0.15310000      -0.17940000      -0.19130000
O        0.75920000      -0.78440000       0.72880000
C       -1.61430000      -0.42920000       0.24510000
C       -2.67590000       0.01050000      -0.81160000
C       -3.11450000      -1.26640000      -1.50260000
N       -1.97610000      -2.07780000      -1.99070000
C       -2.64500000      -2.43060000      -0.71660000
C       -1.90050000      -1.93840000       0.50810000
H        1.23900000       1.41830000      -0.60780000
H       -0.41310000       1.78570000      -1.13120000
H        0.00000000       1.84630000       0.58740000
H        0.01880000      -0.70410000      -1.13530000
H        0.67000000      -0.32310000       1.57080000
H       -1.76360000       0.14120000       1.17190000
H       -3.54270000       0.46560000      -0.31870000
H       -2.28550000       0.74750000      -1.51940000
H       -4.04490000      -1.28440000      -2.06160000
H       -2.30290000      -2.70410000      -2.72230000
H       -3.21280000      -3.35470000      -0.66890000
H       -0.97310000      -2.48290000       0.70080000
H       -2.54660000      -2.06160000       1.38540000
