19
Properties=species:S:1:pos:R:3 gdb_117008=T pbc="F F F"
C       -0.13480000       1.57880000       0.01220000
C       -0.01200000       0.05330000       0.00250000
C       -1.37170000      -0.64470000       0.01180000
C       -1.27800000      -2.16270000       0.00250000
O       -0.22400000      -2.76280000      -0.01130000
C       -2.55160000      -2.85940000       0.01120000
C       -3.61670000      -3.42710000       0.01840000
C       -4.91230000      -4.09000000       0.02680000
O       -4.73750000      -5.49700000       0.01840000
H        0.85140000       2.05270000       0.00520000
H       -0.68370000       1.94190000      -0.86410000
H       -0.66650000       1.93210000       0.90310000
H        0.55110000      -0.27550000      -0.87740000
H        0.56810000      -0.28520000       0.86750000
H       -1.96460000      -0.35290000       0.89060000
H       -1.98150000      -0.34330000      -0.85200000
H       -5.46860000      -3.75390000       0.91770000
H       -5.48440000      -3.74530000      -0.85070000
H       -5.61300000      -5.89760000       0.02400000
