11
Properties=species:S:1:pos:R:3 gdb_346=T pbc="F F F"
C        0.05370000       1.53860000       0.00930000
C       -0.05660000       0.01650000       0.00290000
C       -1.48460000      -0.47590000       0.01370000
O       -2.46510000       0.22330000       0.02670000
C       -1.62710000      -1.95190000       0.00730000
N       -1.72370000      -3.10410000       0.00220000
H        1.10360000       1.84110000       0.00110000
H       -0.43880000       1.97000000      -0.86550000
H       -0.42260000       1.96140000       0.89720000
H        0.43440000      -0.42790000      -0.87440000
H        0.45050000      -0.43640000       0.86660000
