17
Properties=species:S:1:pos:R:3 gdb_113624=T pbc="F F F"
C       -0.15480000       1.39330000       0.46690000
C       -0.09880000      -0.09840000       0.11580000
C       -1.46140000      -0.69680000      -0.15690000
C       -1.71730000      -2.17600000      -0.01640000
N       -2.28870000      -1.22340000       0.91290000
C       -2.12970000      -1.14080000       2.26810000
O       -1.86920000      -0.14490000       2.90360000
C       -2.41170000      -2.42450000       2.94570000
N       -2.59690000      -3.42020000       3.50230000
H        0.85300000       1.79040000       0.61760000
H       -0.62160000       1.96900000      -0.33970000
H       -0.73050000       1.55050000       1.38150000
H        0.50960000      -0.24920000      -0.78500000
H        0.38960000      -0.65930000       0.92090000
H       -2.04320000      -0.17900000      -0.91880000
H       -2.42010000      -2.67520000      -0.67720000
H       -0.90000000      -2.79520000       0.34560000
