19
Properties=species:S:1:pos:R:3 gdb_79539=T pbc="F F F"
C       -0.06930000       1.52300000      -0.00510000
C        0.10530000       0.02060000       0.05180000
C        1.39590000      -0.71630000      -0.20680000
C        2.59780000      -0.01270000       0.37150000
C        3.20270000      -0.81820000       1.48220000
C        1.93550000      -0.03630000       1.78040000
C        1.89790000       0.99340000       2.76590000
C        1.85290000       1.85550000       3.60550000
C        0.73450000      -0.74840000       1.18790000
H        0.77390000       2.05220000       0.44290000
H       -0.17070000       1.85980000      -1.04300000
H       -0.97290000       1.82690000       0.53400000
H       -0.74490000      -0.52320000      -0.35980000
H        1.45430000      -1.53400000      -0.91700000
H        3.12290000       0.82700000      -0.06910000
H        3.16050000      -1.90390000       1.45540000
H        4.10450000      -0.40900000       1.92680000
H        1.81300000       2.61570000       4.34540000
H        0.23060000      -1.58260000       1.66380000
