16
Properties=species:S:1:pos:R:3 gdb_29728=T pbc="F F F"
C        0.02940000       1.42740000       0.01090000
N        0.01260000      -0.02480000      -0.00960000
C        0.01320000      -0.82870000      -1.12370000
C        0.03240000      -0.29380000      -2.51410000
C       -0.00660000      -2.12130000      -0.63840000
N       -0.01940000      -2.13920000       0.72290000
C       -0.00750000      -0.86700000       1.08010000
C       -0.01380000      -0.37290000       2.40900000
N       -0.01830000       0.07690000       3.47690000
H        0.92850000       1.80970000      -0.48080000
H       -0.85130000       1.83040000      -0.49740000
H        0.02370000       1.76560000       1.04750000
H        0.92490000       0.31210000      -2.71100000
H        0.02930000      -1.12270000      -3.22480000
H       -0.84180000       0.33290000      -2.72740000
H       -0.01220000      -3.03480000      -1.21440000
