17
Properties=species:S:1:pos:R:3 gdb_50303=T pbc="F F F"
N        0.07000000       1.29440000       0.20740000
C       -0.04220000       0.03680000       0.08830000
N       -1.25220000      -0.64560000       0.02780000
C       -1.25450000      -2.10830000      -0.07970000
C       -2.71440000      -2.50100000       0.07830000
C       -3.39900000      -2.04800000       1.33080000
C       -3.51880000      -1.22240000       0.06290000
C       -2.54770000      -0.08240000      -0.04460000
O       -2.81260000       1.08210000      -0.17970000
H        1.05720000       1.54580000       0.22990000
H        0.79960000      -0.66630000       0.02620000
H       -0.87140000      -2.42370000      -1.05910000
H       -0.61580000      -2.55470000       0.69150000
H       -3.05790000      -3.39350000      -0.42850000
H       -4.28770000      -2.58830000       1.63610000
H       -2.80370000      -1.65470000       2.14900000
H       -4.47820000      -1.10440000      -0.42160000
