22
Properties=species:S:1:pos:R:3 gdb_93012=T pbc="F F F"
C        0.01910000       1.57690000       0.00840000
C        0.02030000       0.04650000      -0.01570000
C        0.71690000      -0.50190000      -1.27440000
C        0.94210000      -1.99040000      -1.20860000
C        0.86620000      -2.68850000      -0.07430000
C        0.59990000      -2.06310000       1.24380000
C       -0.30020000      -2.79010000       2.19080000
N        1.14110000      -2.71160000       2.45940000
C        0.67660000      -0.54650000       1.24110000
H        1.04170000       1.96860000       0.06480000
H       -0.44540000       1.98900000      -0.89410000
H       -0.53180000       1.96040000       0.87370000
H       -1.02280000      -0.30010000      -0.04160000
H        0.12480000      -0.25650000      -2.16570000
H        1.68090000       0.01200000      -1.41650000
H        1.16610000      -2.50310000      -2.14080000
H        1.00680000      -3.76850000      -0.08160000
H       -0.92580000      -2.22240000       2.87550000
H       -0.72600000      -3.73770000       1.86950000
H        1.59000000      -3.59180000       2.21390000
H        1.73430000      -0.25130000       1.27080000
H        0.21470000      -0.14620000       2.14960000
