17
Properties=species:S:1:pos:R:3 gdb_71963=T pbc="F F F"
O       -0.03760000       1.41480000       0.01880000
C        0.02840000       0.01830000      -0.01850000
C        0.30750000      -0.72130000      -1.35390000
C       -0.65880000      -1.81680000      -0.85000000
O       -0.03340000      -2.67810000       0.11030000
C       -0.07350000      -1.92210000       1.31710000
C        0.80390000      -0.66590000       1.13790000
O       -1.38380000      -1.38120000       1.36330000
C       -1.33230000      -0.76080000       0.09720000
H        0.85960000       1.76520000       0.01900000
H       -0.12360000      -0.17650000      -2.19950000
H        1.33260000      -1.02420000      -1.58010000
H       -1.22820000      -2.41900000      -1.55620000
H        0.11900000      -2.57260000       2.16850000
H        1.84130000      -0.90380000       0.89170000
H        0.76260000      -0.04680000       2.03810000
H       -2.26190000      -0.26960000      -0.17480000
