15
Properties=species:S:1:pos:R:3 gdb_2050=T pbc="F F F"
C       -0.02110000       1.57140000      -0.00460000
C        0.03800000       0.06540000      -0.05960000
O       -1.11140000      -0.59780000       0.40770000
C        0.63000000      -0.74110000      -1.19820000
C        1.92160000      -0.10410000      -1.68850000
O        2.45090000      -0.03100000      -0.33300000
C        1.30270000      -0.72300000       0.16380000
H        0.93860000       2.01330000      -0.28020000
H       -0.80080000       1.95800000      -0.66830000
H       -0.25150000       1.90140000       1.01600000
H       -1.19610000      -0.40810000       1.34910000
H        0.05810000      -1.51600000      -1.68950000
H        2.53360000      -0.77790000      -2.29850000
H        1.86550000       0.87960000      -2.16890000
H        1.43880000      -1.47930000       0.92940000
