15
Properties=species:S:1:pos:R:3 gdb_28054=T pbc="F F F"
C       -0.00430000       1.43820000       0.16420000
C       -0.04200000      -0.03260000      -0.04200000
C       -1.04970000      -0.91850000      -0.27010000
C       -0.42260000      -2.19900000      -0.38040000
O       -1.08690000      -3.37230000      -0.64320000
C       -0.87950000      -4.42230000       0.20170000
O       -1.34550000      -5.49830000      -0.00110000
C        0.91430000      -2.01160000      -0.21570000
O        1.15400000      -0.68820000      -0.00250000
H        0.60560000       1.93280000      -0.59990000
H       -1.01580000       1.84600000       0.11340000
H        0.42180000       1.69370000       1.14060000
H       -2.10290000      -0.70500000      -0.35310000
H       -0.24700000      -4.13870000       1.06200000
H        1.76980000      -2.66410000      -0.24360000
