20
Properties=species:S:1:pos:R:3 gdb_39466=T pbc="F F F"
C        0.07720000       1.54820000      -0.23490000
O        1.43800000       1.96410000      -0.33760000
C        2.04050000       2.41780000       0.86260000
C        2.75340000       1.33310000       1.64830000
N        2.70460000       1.46970000       3.12220000
C        2.04270000       0.32750000       2.47610000
C        0.52470000       0.24560000       2.51950000
C        0.01140000      -0.47330000       1.29540000
C       -0.14220000       0.08480000       0.09380000
H       -0.44190000       2.18260000       0.50020000
H       -0.36330000       1.76210000      -1.21360000
H        2.77180000       3.17890000       0.56440000
H        1.30640000       2.91360000       1.51180000
H        3.69250000       1.00510000       1.20640000
H        3.58630000       1.18410000       3.53900000
H        2.53740000      -0.64050000       2.55400000
H        0.21070000      -0.27400000       3.43150000
H        0.11960000       1.26000000       2.58100000
H       -0.17390000      -1.54050000       1.40030000
H       -0.45840000      -0.54450000      -0.73460000
