17
Properties=species:S:1:pos:R:3 gdb_18865=T pbc="F F F"
C        0.18390000       1.49340000       0.25630000
C        0.01500000      -0.00030000       0.09470000
N        0.64140000      -0.67530000      -1.14970000
C        2.06860000      -1.28970000      -0.98010000
C        3.07200000      -0.96300000       0.14310000
C        2.09240000      -0.60830000       1.25420000
C        0.85430000      -1.01240000       0.89140000
C        0.89550000      -1.90150000      -0.35370000
H        1.23660000       1.78730000       0.25570000
H       -0.32150000       2.01060000      -0.56560000
H       -0.26770000       1.83180000       1.19490000
H       -1.04690000      -0.25780000       0.01150000
H        2.41810000      -1.58690000      -1.96490000
H        3.73860000      -1.82730000       0.28000000
H        3.71410000      -0.09520000      -0.04750000
H        2.24760000       0.30410000       1.82250000
H        0.40530000      -2.85020000      -0.54250000
