16
Properties=species:S:1:pos:R:3 gdb_64804=T pbc="F F F"
C       -0.08020000       1.65380000      -0.62050000
C       -0.04880000       0.22020000      -0.15710000
C        1.16410000      -0.64240000      -0.31270000
C        0.69580000      -0.22030000       1.06660000
O       -1.26680000      -0.49700000      -0.44190000
C       -2.33320000      -0.20780000       0.30600000
O       -2.41480000       0.58880000       1.19920000
C       -3.47010000      -1.03710000      -0.12240000
N       -4.39620000      -1.66190000      -0.41480000
H        0.90130000       2.11070000      -0.46880000
H       -0.31960000       1.70860000      -1.68720000
H       -0.81810000       2.23240000      -0.05970000
H        1.00200000      -1.67500000      -0.59870000
H        2.05560000      -0.18760000      -0.72940000
H        1.25730000       0.53160000       1.60930000
H        0.23620000      -0.97700000       1.69110000
