17
Properties=species:S:1:pos:R:3 gdb_98382=T pbc="F F F"
C        0.13750000       1.25230000      -0.25110000
N        0.14610000      -0.18390000      -0.05400000
C        0.64960000      -0.72300000       1.06810000
O        1.11340000      -0.10340000       2.00800000
N        0.60570000      -2.17320000       1.11800000
C        0.12380000      -3.02880000       0.13330000
N       -0.36250000      -2.63890000      -0.97950000
C        1.11790000      -2.75360000       2.29650000
N        1.14090000      -4.01020000       2.46990000
H        0.98770000       1.58590000      -0.85870000
H       -0.78680000       1.54780000      -0.75490000
H        0.19430000       1.74410000       0.72050000
H       -0.18980000      -0.82570000      -0.77280000
H        0.22330000      -4.06700000       0.44970000
H       -0.64880000      -3.43640000      -1.54100000
H        1.46540000      -1.98380000       2.98230000
H        1.54570000      -4.22850000       3.37750000
