18
Properties=species:S:1:pos:R:3 gdb_34667=T pbc="F F F"
N        0.05080000      -1.07430000      -0.55890000
C       -0.00240000       0.05280000      -0.30650000
C       -0.01380000       1.47630000       0.01470000
N       -1.15440000       2.03930000       0.00560000
C       -1.35450000       3.47060000       0.12960000
C       -0.63020000       4.22970000       1.24970000
C        0.88440000       4.31660000       1.06190000
C        1.58740000       2.97530000       1.24770000
N        1.26530000       1.97490000       0.22790000
H       -1.07580000       3.92680000      -0.83460000
H       -2.43220000       3.62720000       0.24020000
H       -1.05140000       5.24140000       1.28340000
H       -0.86050000       3.76230000       2.21620000
H        1.11870000       4.71740000       0.06770000
H        1.30750000       5.01110000       1.79660000
H        2.67100000       3.11680000       1.20170000
H        1.35150000       2.58830000       2.25210000
H        1.97420000       1.26000000       0.14570000
