16
Properties=species:S:1:pos:R:3 gdb_77329=T pbc="F F F"
C       -0.09450000       1.39860000      -0.02130000
N       -0.04960000      -0.04290000      -0.14750000
C       -1.21370000      -0.88240000       0.04990000
C       -0.61460000      -2.30400000      -0.13180000
N        0.75950000      -2.08190000       0.27840000
C        1.12530000      -0.75470000       0.09250000
O        2.24220000      -0.29440000       0.12950000
C       -1.82890000      -0.69830000       1.38490000
N       -2.31800000      -0.52900000       2.41790000
H        0.93360000       1.75770000      -0.08720000
H       -0.68510000       1.83890000      -0.83140000
H       -0.52270000       1.71160000       0.93980000
H       -1.98810000      -0.68130000      -0.69820000
H       -1.12150000      -3.04390000       0.49060000
H       -0.70340000      -2.60180000      -1.18540000
H        1.46880000      -2.77450000       0.09850000
