14
Properties=species:S:1:pos:R:3 gdb_1970=T pbc="F F F"
O        0.06520000       1.43850000       0.14160000
C        0.04210000       0.05860000      -0.18280000
C       -1.35550000      -0.53210000      -0.07170000
C       -1.46860000      -2.08430000      -0.05830000
C       -2.11190000      -1.91290000       1.33960000
O       -2.63140000      -2.62910000       2.14910000
N       -1.89110000      -0.54840000       1.30490000
H       -0.05790000       1.51110000       1.09370000
H        0.39230000      -0.02190000      -1.21770000
H        0.73200000      -0.51690000       0.45320000
H       -2.02950000      -0.04310000      -0.78340000
H       -2.14110000      -2.51670000      -0.80030000
H       -0.52010000      -2.62610000      -0.06260000
H       -2.35940000       0.17720000       1.82960000
