20
Properties=species:S:1:pos:R:3 gdb_68850=T pbc="F F F"
C       -0.08080000       1.50920000       0.14270000
C       -0.03440000       0.00320000       0.06670000
C        1.28400000      -0.67370000      -0.29360000
C        0.74680000      -0.80770000       1.09580000
O        1.46520000      -0.21140000       2.12990000
C       -0.04560000      -2.04400000       1.39350000
N       -1.33680000      -1.69350000       2.03540000
C       -1.28670000      -2.00510000       0.58540000
C       -1.30880000      -0.76440000      -0.30220000
H        0.83300000       1.90090000       0.59850000
H       -0.18680000       1.96160000      -0.85020000
H       -0.92940000       1.84310000       0.75120000
H        1.28300000      -1.54130000      -0.94750000
H        2.14220000      -0.02010000      -0.40880000
H        0.82810000      -0.02070000       2.82990000
H        0.45180000      -2.97090000       1.66480000
H       -1.69100000      -2.50920000       2.53050000
H       -1.75890000      -2.92120000       0.24580000
H       -2.20200000      -0.16150000      -0.10360000
H       -1.33160000      -1.04590000      -1.36240000
