18
Properties=species:S:1:pos:R:3 gdb_99159=T pbc="F F F"
O        0.18570000       1.25800000      -0.23370000
C        0.05560000      -0.09460000       0.08730000
C       -1.41050000      -0.51990000      -0.05640000
O       -2.25020000       0.30300000      -0.39540000
N       -1.69160000      -1.81390000       0.21480000
C       -3.01990000      -2.33960000       0.18740000
C       -3.40560000      -3.36310000      -0.86530000
C       -3.17040000      -3.78230000       0.56670000
O       -1.97200000      -4.42570000       0.90350000
H       -0.72130000       1.53920000      -0.44750000
H        0.67590000      -0.72200000      -0.57320000
H        0.38570000      -0.29400000       1.11980000
H       -0.96720000      -2.44300000       0.52920000
H       -3.76880000      -1.62480000       0.50570000
H       -4.41990000      -3.35660000      -1.24860000
H       -2.63780000      -3.62820000      -1.58420000
H       -4.02650000      -4.06730000       1.17560000
H       -1.96750000      -5.29700000       0.49450000
