13
Properties=species:S:1:pos:R:3 gdb_8605=T pbc="F F F"
C       -0.01660000       1.54380000       0.00640000
C       -0.00430000      -0.01630000       0.01330000
C        0.72160000      -0.50780000       1.19630000
C        1.31640000      -0.87330000       2.17160000
C       -1.38420000      -0.52980000       0.00700000
C       -2.52060000      -0.91340000       0.00470000
C        0.69170000      -0.48650000      -1.21030000
N        1.23780000      -0.82190000      -2.17070000
H        1.00830000       1.91890000      -0.00080000
H       -0.54550000       1.90270000      -0.87840000
H       -0.52730000       1.89550000       0.90400000
H        1.84110000      -1.21240000       3.03120000
H       -3.52210000      -1.26840000       0.00230000
