18
Properties=species:S:1:pos:R:3 gdb_17688=T pbc="F F F"
C       -0.10290000       1.42150000      -0.13190000
C        1.27960000       0.90880000       0.16240000
C        0.11870000      -0.05440000       0.11210000
C       -0.38950000      -0.67370000       1.35700000
C       -0.50360000      -0.09120000       2.79520000
C       -0.79530000      -1.60820000       2.83680000
C       -1.70440000      -1.46990000       1.59800000
O        0.35750000      -1.83420000       1.94160000
H       -0.60840000       1.98870000       0.64230000
H       -0.33940000       1.73690000      -1.14170000
H        2.00090000       0.86820000      -0.64560000
H        1.70860000       1.12810000       1.13340000
H        0.06410000      -0.70510000      -0.75580000
H        0.44030000       0.20750000       3.25340000
H       -1.32350000       0.60040000       3.00780000
H       -0.89560000      -2.26530000       3.70020000
H       -2.63600000      -0.90540000       1.69390000
H       -1.81060000      -2.37510000       0.99830000
