22
Properties=species:S:1:pos:R:3 gdb_100793=T pbc="F F F"
C        0.06700000       1.53470000       0.34410000
O       -0.02040000       0.15530000       0.06810000
C        0.65480000      -0.70150000       0.98900000
C       -0.10830000      -0.84650000       2.30560000
C        0.78290000      -2.04390000       0.24450000
O       -0.49910000      -2.49930000      -0.16630000
C        1.74680000      -1.94760000      -0.92140000
C        3.14180000      -2.43510000      -0.76960000
N        2.18090000      -3.16940000      -1.60810000
H        1.11440000       1.86520000       0.41540000
H       -0.41190000       2.05910000      -0.48650000
H       -0.44800000       1.81180000       1.27420000
H        1.66480000      -0.30380000       1.18000000
H        0.45770000      -1.47350000       3.00220000
H       -0.26860000       0.12120000       2.78850000
H       -1.07670000      -1.31830000       2.12270000
H        1.15320000      -2.80150000       0.94740000
H       -0.90790000      -1.75570000      -0.62750000
H        1.55440000      -1.11260000      -1.59110000
H        3.95220000      -1.95560000      -1.31150000
H        3.43240000      -2.85770000       0.18990000
H        1.82440000      -3.98290000      -1.11070000
