21
Properties=species:S:1:pos:R:3 gdb_93827=T pbc="F F F"
C        0.07750000       1.52240000       0.07130000
C        0.05880000       0.00340000       0.00350000
C        0.66680000      -0.55490000      -1.28960000
C        0.78390000      -2.08910000      -1.25360000
O        1.51650000      -2.58480000      -2.35630000
C        1.43220000      -2.54000000       0.06700000
O        2.81720000      -2.18890000       0.05680000
C        0.72390000      -1.89230000       1.25350000
O        0.78750000      -0.47890000       1.13930000
H        1.10470000       1.89510000       0.00750000
H       -0.49630000       1.94900000      -0.75660000
H       -0.35570000       1.86950000       1.01300000
H       -0.98300000      -0.35220000       0.09220000
H        0.07260000      -0.25130000      -2.15730000
H        1.66870000      -0.12720000      -1.42440000
H       -0.21840000      -2.53230000      -1.32000000
H        2.44550000      -2.47520000      -2.11020000
H        1.39300000      -3.63200000       0.14010000
H        2.86240000      -1.27060000       0.35340000
H       -0.32260000      -2.23360000       1.30980000
H        1.22620000      -2.15360000       2.18940000
