23
Properties=species:S:1:pos:R:3 gdb_102593=T pbc="F F F"
C        0.17530000       1.42310000       0.00450000
O        0.06970000       0.01560000      -0.03900000
C        0.69570000      -0.60110000      -1.16880000
C        2.18440000      -0.81140000      -0.85950000
O        2.36860000      -1.53670000       0.34050000
C       -0.04950000      -1.89550000      -1.47290000
C       -0.38270000      -2.90600000      -0.33720000
C       -1.74770000      -3.16610000      -1.02850000
C       -1.56870000      -1.82680000      -1.79300000
H        1.21700000       1.76810000       0.07040000
H       -0.28610000       1.88710000      -0.87970000
H       -0.35840000       1.75790000       0.89770000
H        0.60810000       0.06560000      -2.04350000
H        2.65580000      -1.38490000      -1.66500000
H        2.69590000       0.16470000      -0.81520000
H        1.74980000      -1.14970000       0.97240000
H        0.48110000      -2.40620000      -2.28470000
H        0.29800000      -3.74630000      -0.19150000
H       -0.51650000      -2.38890000       0.61540000
H       -1.70400000      -4.02610000      -1.70360000
H       -2.62890000      -3.27120000      -0.39120000
H       -2.03490000      -0.99670000      -1.25520000
H       -1.86850000      -1.78610000      -2.84360000
