21
Properties=species:S:1:pos:R:3 gdb_90994=T pbc="F F F"
C       -0.15070000       1.56580000      -0.00400000
C        0.05120000       0.05210000      -0.00790000
C        0.84750000      -0.51230000      -1.22870000
C        1.59870000      -1.70430000      -0.62820000
C        2.79320000      -1.40970000       0.33880000
C        2.33550000      -0.15050000       1.10110000
C        0.82760000      -0.54110000       1.18640000
C        1.00710000      -2.03860000       0.76290000
O        2.30920000      -2.46180000       1.22790000
H        0.80300000       2.10390000       0.00950000
H       -0.69640000       1.88840000      -0.89750000
H       -0.72640000       1.88740000       0.87050000
H       -0.94370000      -0.41610000      -0.01470000
H        0.18200000      -0.81370000      -2.04280000
H        1.53260000       0.23700000      -1.64280000
H        1.78460000      -2.56360000      -1.27130000
H        3.84060000      -1.51440000       0.05370000
H        2.82210000      -0.10490000       2.07720000
H        2.52010000       0.78700000       0.57110000
H        0.36190000      -0.37090000       2.15800000
H        0.20070000      -2.74670000       0.95370000
