17
Properties=species:S:1:pos:R:3 gdb_83053=T pbc="F F F"
C       -0.11750000       1.53370000       0.03930000
C        0.06220000       0.03490000       0.05080000
C        1.35430000      -0.65800000      -0.26590000
N        2.54910000       0.12270000      -0.09100000
C        2.64550000       0.42890000       1.25500000
N        1.69230000       0.02730000       2.01460000
C        0.76920000      -0.71630000       1.18740000
C        0.14260000      -1.86790000       1.76440000
C       -0.39370000      -2.84080000       2.22580000
H        0.73260000       2.05360000       0.48420000
H       -0.23450000       1.89630000      -0.98770000
H       -1.01230000       1.81460000       0.60300000
H       -0.79820000      -0.52380000      -0.30710000
H        1.40070000      -1.49970000      -0.94600000
H        3.37700000      -0.09300000      -0.62460000
H        3.48390000       1.01990000       1.60940000
H       -0.86240000      -3.69600000       2.64500000
