16
Properties=species:S:1:pos:R:3 gdb_96656=T pbc="F F F"
C       -0.53230000       1.71590000      -0.37060000
N       -0.68070000       0.27820000      -0.38640000
C        0.18770000      -0.48350000      -0.86530000
C        1.51200000      -0.23880000      -1.52790000
O       -0.16140000      -1.85920000      -0.87090000
C        0.47240000      -2.66360000       0.01010000
O        1.30640000      -2.30410000       0.80100000
C        0.01100000      -4.02690000      -0.12560000
C       -0.33510000      -5.17510000      -0.19520000
H        0.37990000       2.10720000      -0.83900000
H       -1.39880000       2.16210000      -0.87020000
H       -0.55800000       2.05540000       0.67030000
H        2.30450000      -0.69460000      -0.92820000
H        1.52030000      -0.71290000      -2.51430000
H        1.72260000       0.82400000      -1.64400000
H       -0.64310000      -6.19060000      -0.25700000
