19
Properties=species:S:1:pos:R:3 gdb_107974=T pbc="F F F"
C       -0.08510000       1.54020000      -0.05420000
C        0.01180000       0.01030000      -0.08120000
C        0.76570000      -0.50180000      -1.26900000
O        0.28480000      -0.16920000      -2.61500000
C        1.46700000      -0.97990000      -2.85380000
C        2.28080000      -0.38830000      -1.66850000
C        2.62310000      -1.77440000      -1.08200000
C        1.19500000      -1.95620000      -1.64850000
O        0.34990000      -3.03760000      -1.57310000
H        0.90590000       1.99780000       0.03080000
H       -0.54700000       1.91090000      -0.97300000
H       -0.68660000       1.87750000       0.79480000
H        0.50280000      -0.36350000       0.82600000
H       -0.99090000      -0.43330000      -0.10000000
H        1.77240000      -1.17820000      -3.88100000
H        2.87720000       0.51980000      -1.69330000
H        3.42510000      -2.32740000      -1.58040000
H        2.73050000      -1.83610000       0.00430000
H        0.76890000      -3.79310000      -1.99970000
