18
Properties=species:S:1:pos:R:3 gdb_51330=T pbc="F F F"
O        0.19080000      -0.17750000      -0.14630000
C        0.07950000       1.01780000      -0.23420000
C        1.18970000       2.00710000       0.05270000
C        1.38310000       2.98320000      -1.10820000
C        2.64130000       3.81860000      -1.26820000
C        3.63720000       2.94340000      -2.06170000
C        2.92080000       1.63290000      -2.33370000
N        1.62740000       2.41010000      -2.50240000
C        2.51320000       3.65530000      -2.75300000
H       -0.88490000       1.48380000      -0.54210000
H        0.89520000       2.59450000       0.93450000
H        2.09780000       1.45860000       0.30920000
H        0.49400000       3.61690000      -1.19940000
H        2.97480000       4.68780000      -0.71450000
H        4.69330000       3.18210000      -2.08130000
H        3.19180000       1.21070000      -3.30460000
H        2.89900000       0.83380000      -1.58750000
H        2.43020000       4.33450000      -3.58870000
