19
Properties=species:S:1:pos:R:3 gdb_62236=T pbc="F F F"
C       -0.14260000       1.53510000       0.15360000
C        0.01220000       0.00270000       0.04300000
N        0.60910000      -0.50190000      -1.19370000
C       -0.20590000      -0.32910000      -2.39100000
C        0.47780000      -0.99540000      -3.59270000
C       -0.42380000      -1.02510000      -4.80670000
O       -0.14980000      -0.55800000      -5.88090000
C        0.80370000      -0.50000000       1.18040000
N        1.43310000      -0.86330000       2.07820000
H        0.83390000       2.02420000       0.08910000
H       -0.77750000       1.91020000      -0.65280000
H       -0.60060000       1.81100000       1.10750000
H       -0.98270000      -0.45510000       0.12390000
H        1.52750000      -0.08860000      -1.32480000
H       -1.17420000      -0.81400000      -2.20690000
H       -0.42270000       0.72400000      -2.63850000
H        1.40680000      -0.48310000      -3.86110000
H        0.71830000      -2.03060000      -3.31610000
H       -1.40360000      -1.53100000      -4.63530000
