15
Properties=species:S:1:pos:R:3 gdb_7685=T pbc="F F F"
C       -0.01060000       1.57890000       0.06680000
C        0.04940000       0.07230000       0.07780000
O       -1.11060000      -0.57570000      -0.37080000
C        1.29420000      -0.72500000      -0.16660000
O        2.45350000      -0.03460000       0.36090000
C        1.93080000      -0.14070000       1.65710000
N        2.44190000       0.16350000       2.75870000
C        0.65440000      -0.76700000       1.21100000
H        0.92760000       2.01890000       0.40790000
H       -0.19910000       1.94070000      -0.95170000
H       -0.82310000       1.92850000       0.70990000
H       -1.28190000      -0.28270000      -1.27310000
H        1.44940000      -1.49150000      -0.91380000
H        3.37890000       0.55140000       2.63750000
H        0.07770000      -1.52740000       1.71550000
