20
Properties=species:S:1:pos:R:3 gdb_92557=T pbc="F F F"
C        0.08780000       1.52440000      -0.16470000
C       -0.04810000       0.00660000      -0.03680000
C        0.38120000      -0.80930000      -1.29080000
C        1.73590000      -1.39980000      -0.88010000
O        2.74170000      -0.38130000      -1.02200000
C        3.05430000       0.19890000       0.23840000
C        2.15940000      -0.46100000       1.26370000
C        1.56710000      -1.65690000       0.62160000
N        0.69470000      -0.58510000       1.11430000
H        1.04780000       1.81950000      -0.59280000
H       -0.69680000       1.91120000      -0.82280000
H       -0.02640000       2.00460000       0.81180000
H       -1.09930000      -0.20790000       0.18450000
H       -0.33560000      -1.61510000      -1.48420000
H        0.46880000      -0.20550000      -2.19740000
H        2.04190000      -2.27130000      -1.46500000
H        4.10250000      -0.01230000       0.50060000
H        2.94170000       1.28760000       0.18220000
H        2.49010000      -0.44840000       2.29880000
H        1.50140000      -2.65440000       1.04370000
