21
Properties=species:S:1:pos:R:3 gdb_103221=T pbc="F F F"
C       -0.22520000       1.33800000       0.03500000
O        0.22780000       0.00500000      -0.05300000
C        0.82600000      -0.51840000       1.12080000
C        2.16960000       0.13630000       1.41470000
C       -0.14090000      -0.82190000       2.29500000
C       -0.79390000      -2.02330000       1.52220000
C       -0.59230000      -2.98540000       2.70790000
C        0.66880000      -2.10070000       2.71230000
C        0.72970000      -2.05340000       1.14550000
H        0.59790000       2.06190000       0.12090000
H       -0.77230000       1.54950000      -0.88740000
H       -0.90560000       1.48670000       0.88670000
H        2.05680000       1.19280000       1.67860000
H        2.67660000      -0.35690000       2.24800000
H        2.81570000       0.07670000       0.53290000
H       -0.65000000      -0.14060000       2.97970000
H       -1.62180000      -1.95740000       0.81890000
H       -1.27440000      -2.87350000       3.55710000
H       -0.45060000      -4.04420000       2.46710000
H        1.52130000      -2.12990000       3.39140000
H        1.22100000      -2.77630000       0.49200000
