19
Properties=species:S:1:pos:R:3 gdb_57280=T pbc="F F F"
C        0.01950000       1.52370000       0.09240000
C        0.00160000      -0.01400000       0.02980000
N        0.71550000      -0.53070000       1.20120000
C       -1.41110000      -0.47930000       0.00160000
N       -2.49980000      -0.87020000       0.00720000
C        0.67680000      -0.50060000      -1.27160000
C        2.22250000      -0.46860000      -1.30020000
O        2.29060000      -1.90920000      -1.35630000
C        0.85950000      -2.02330000      -1.45770000
H        1.05580000       1.87060000       0.08610000
H       -0.51320000       1.95600000      -0.75790000
H       -0.45850000       1.87880000       1.00990000
H        0.25790000      -0.21930000       2.05240000
H        0.70510000      -1.54600000       1.21690000
H        0.18980000      -0.00710000      -2.11460000
H        2.65360000      -0.00400000      -2.19550000
H        2.70680000      -0.07200000      -0.40330000
H        0.43320000      -2.67270000      -0.68170000
H        0.54140000      -2.40530000      -2.43550000
