21
Properties=species:S:1:pos:R:3 gdb_112751=T pbc="F F F"
C        0.22630000       1.79780000      -0.61580000
O       -0.34860000       0.51260000      -0.71000000
C        0.55530000      -0.47660000      -1.11240000
C        1.53100000      -1.10250000      -0.06410000
C        1.18170000      -2.51750000      -0.62550000
C        0.99610000      -3.67790000       0.33980000
C       -0.04450000      -1.86700000      -1.28000000
C       -1.45850000      -2.22350000      -1.17480000
O       -0.74090000      -2.33170000      -2.41690000
H        1.02100000       1.83840000       0.14390000
H        0.65140000       2.12220000      -1.57830000
H       -0.56950000       2.48930000      -0.32930000
H        1.09430000      -0.16720000      -2.02230000
H        2.57730000      -0.79430000      -0.09290000
H        1.13460000      -0.96560000       0.94630000
H        1.89600000      -2.79310000      -1.41030000
H        0.29150000      -3.41940000       1.13750000
H        0.61180000      -4.56360000      -0.17780000
H        1.94630000      -3.95500000       0.80860000
H       -1.74850000      -3.17070000      -0.72270000
H       -2.20110000      -1.42980000      -1.13400000
