16
Properties=species:S:1:pos:R:3 gdb_34765=T pbc="F F F"
C       -0.60320000      -1.12930000       0.18190000
C       -0.30510000       0.03470000       0.13250000
C       -0.04910000       1.44570000       0.08020000
C        0.53360000       2.21420000       1.20770000
C        1.54910000       1.38020000       1.98240000
C        2.34790000       1.30200000       0.64330000
C        2.78670000       0.03710000       0.09030000
C        3.22480000      -0.98680000      -0.36220000
N        1.28480000       2.09510000      -0.10360000
H       -0.83480000      -2.16520000       0.21250000
H       -0.77800000       1.99660000      -0.51020000
H        0.10460000       3.15560000       1.53520000
H        2.08330000       1.92370000       2.76200000
H        1.17230000       0.43710000       2.38250000
H        3.21020000       1.97370000       0.69480000
H        3.58080000      -1.90190000      -0.76650000
