19
Properties=species:S:1:pos:R:3 gdb_80438=T pbc="F F F"
C       -0.05140000       1.53350000      -0.20460000
C        0.05390000       0.04060000       0.01670000
C        1.31930000      -0.74170000      -0.11300000
O        2.45680000      -0.00430000       0.35240000
C        1.94990000      -0.05280000       1.70900000
C        2.78770000      -1.00820000       2.55930000
C        1.87220000       1.28890000       2.41010000
O        2.31640000       2.32730000       1.99950000
C        0.62490000      -0.67640000       1.23550000
H        0.90650000       2.02660000      -0.03590000
H       -0.35880000       1.73350000      -1.23640000
H       -0.79670000       1.98570000       0.45820000
H       -0.79540000      -0.52950000      -0.35970000
H        1.50590000      -1.56170000      -0.79720000
H        3.81990000      -0.65100000       2.61610000
H        2.38690000      -1.08630000       3.57580000
H        2.78390000      -2.00310000       2.10710000
H        1.35900000       1.22270000       3.39970000
H        0.08350000      -1.43750000       1.78250000
