19
Properties=species:S:1:pos:R:3 gdb_30872=T pbc="F F F"
C        0.33980000       0.94800000      -0.37180000
O       -0.26390000       0.23740000       0.71390000
C       -1.32630000      -0.53370000       0.35660000
C       -1.37130000      -1.82630000      -0.10700000
N       -0.25510000      -2.63590000      -0.41630000
C       -2.75120000      -2.14370000      -0.29210000
C       -3.50250000      -1.04330000       0.06360000
C       -4.98140000      -0.84330000       0.08930000
N       -2.62450000      -0.05540000       0.43900000
H        1.19080000       1.49300000       0.04350000
H        0.68650000       0.25700000      -1.14860000
H       -0.36500000       1.66020000      -0.81920000
H        0.55050000      -2.35790000       0.13350000
H       -0.44220000      -3.61290000      -0.22330000
H       -3.14770000      -3.08000000      -0.65690000
H       -5.35750000      -0.63060000       1.09880000
H       -5.30170000      -0.01600000      -0.55690000
H       -5.48250000      -1.74830000      -0.26250000
H       -2.86980000       0.82830000       0.85040000
