20
Properties=species:S:1:pos:R:3 gdb_121471=T pbc="F F F"
C        0.24200000       1.12240000       0.97540000
C       -0.23900000      -0.11120000       0.22340000
O        0.77760000      -1.11490000       0.14790000
C        0.83570000      -1.98730000       1.17080000
N        1.77670000      -2.82270000       1.23140000
C        1.82920000      -3.79080000       2.32490000
C        3.20420000      -3.68300000       3.01210000
C        0.74550000      -3.71470000       3.31630000
C       -0.13820000      -3.63890000       4.12940000
H        1.15070000       1.51990000       0.51540000
H       -0.52770000       1.90070000       0.95600000
H        0.46200000       0.88520000       2.02100000
H       -1.14260000      -0.52910000       0.68680000
H       -0.47990000       0.13360000      -0.81450000
H        0.01180000      -1.90910000       1.89180000
H        1.77630000      -4.78400000       1.85640000
H        3.30340000      -2.71380000       3.50810000
H        3.32600000      -4.47260000       3.75820000
H        3.98920000      -3.77040000       2.25740000
H       -0.91420000      -3.59140000       4.85300000
