19
Properties=species:S:1:pos:R:3 gdb_73709=T pbc="F F F"
O        0.15030000       1.39460000       0.12950000
C        0.10110000       0.00870000       0.03740000
C        1.10170000      -0.61940000       0.99490000
C        1.44960000      -2.04730000       0.55240000
C        0.19140000      -2.79650000       0.08610000
C       -0.69360000      -1.87680000      -0.75260000
C       -1.31920000      -0.62920000      -0.08670000
O       -1.44150000       0.00370000      -1.42670000
C       -0.08530000      -0.60350000      -1.40220000
H       -0.53040000       1.70810000      -0.48480000
H        1.99650000       0.00990000       1.02720000
H        0.67600000      -0.60970000       2.00610000
H        2.15170000      -1.99020000      -0.28880000
H        1.96360000      -2.59230000       1.35000000
H        0.47130000      -3.68330000      -0.49270000
H       -0.38590000      -3.16020000       0.94640000
H       -1.39790000      -2.38830000      -1.41080000
H       -2.17800000      -0.55280000       0.58330000
H        0.52040000      -0.49060000      -2.30280000
