16
Properties=species:S:1:pos:R:3 gdb_54490=T pbc="F F F"
C        0.52720000       1.33610000       0.16680000
C       -0.26850000       0.06580000      -0.02030000
O       -1.04190000      -0.36200000       0.81070000
C       -0.04960000      -0.67650000      -1.29340000
C       -1.07290000      -1.72520000      -1.78400000
C        0.29880000      -2.15870000      -1.49290000
O        1.17780000      -1.83050000      -2.59380000
C        0.95120000      -0.46740000      -2.38430000
N        1.48390000       0.53250000      -2.91710000
H        1.59600000       1.09860000       0.22130000
H        0.40910000       1.99450000      -0.69910000
H        0.21180000       1.83330000       1.08430000
H       -1.81380000      -1.93670000      -1.01970000
H       -1.41860000      -1.68460000      -2.81130000
H        0.64290000      -2.88560000      -0.77060000
H        2.17010000       0.26210000      -3.62320000
