21
Properties=species:S:1:pos:R:3 gdb_59425=T pbc="F F F"
C        1.01690000      -0.57450000      -0.81610000
C        0.04380000       0.17990000       0.09850000
C       -0.15450000       1.62570000      -0.38990000
C       -1.31570000      -0.48920000       0.22910000
O       -1.90210000      -1.06090000      -0.96150000
C       -1.60930000      -1.91830000       0.12360000
C       -0.76770000      -3.19190000       0.03750000
O       -1.80590000      -3.93540000       0.71160000
C       -2.66690000      -2.77970000       0.80940000
H        1.92710000       0.01400000      -0.96430000
H        1.31700000      -1.53880000      -0.39850000
H        0.56100000      -0.75190000      -1.79390000
H        0.46670000       0.22070000       1.11300000
H        0.80020000       2.15900000      -0.42550000
H       -0.58670000       1.63630000      -1.39620000
H       -0.82730000       2.18330000       0.27020000
H       -2.03110000       0.09890000       0.81120000
H       -0.58560000      -3.54860000      -0.98370000
H        0.17070000      -3.20390000       0.60400000
H       -2.90760000      -2.52960000       1.85040000
H       -3.59410000      -2.89440000       0.23410000
