19
Properties=species:S:1:pos:R:3 gdb_115525=T pbc="F F F"
C       -0.43800000       1.57960000       0.03470000
C        0.01200000       0.11870000       0.07020000
N        1.33370000      -0.14280000      -0.55630000
C        1.69330000      -1.11660000       0.50580000
C        0.57930000      -0.51460000       1.39600000
C        1.08300000       0.47370000       2.43430000
O        1.72260000      -0.29840000       3.43950000
C       -1.05320000      -0.73880000      -0.48420000
N       -1.86790000      -1.41570000      -0.94930000
H        0.35090000       2.22320000       0.42740000
H       -0.64260000       1.88200000      -0.99660000
H       -1.35210000       1.72510000       0.61790000
H        1.30370000      -0.50060000      -1.50540000
H        1.50470000      -2.16510000       0.24590000
H        2.71710000      -1.01630000       0.87590000
H       -0.08150000      -1.23480000       1.87930000
H        1.78430000       1.18320000       1.97030000
H        0.24200000       1.05250000       2.84760000
H        2.11430000       0.30290000       4.07960000
