19
Properties=species:S:1:pos:R:3 gdb_112097=T pbc="F F F"
C        0.00920000       1.54640000       0.13990000
C       -0.03210000       0.02590000      -0.02370000
C        0.66000000      -0.50900000      -1.31330000
C        0.84890000      -1.99620000      -1.23290000
C        0.11130000      -2.83800000      -1.94440000
C       -0.92030000      -2.36240000      -2.91290000
O       -0.87010000      -0.96540000      -3.22010000
C       -0.10970000      -0.06540000      -2.55190000
O       -0.08940000       1.06920000      -2.95080000
H        1.04240000       1.90610000       0.19430000
H       -0.47100000       2.05160000      -0.70030000
H       -0.49760000       1.84290000       1.06360000
H        0.46530000      -0.45160000       0.82950000
H       -1.06820000      -0.33460000      -0.00810000
H        1.63390000      -0.00980000      -1.38730000
H        1.59340000      -2.36140000      -0.53040000
H        0.22010000      -3.91480000      -1.85470000
H       -0.81710000      -2.88230000      -3.87360000
H       -1.93260000      -2.58450000      -2.54500000
