13
Properties=species:S:1:pos:R:3 gdb_4373=T pbc="F F F"
N        0.03230000       1.31830000      -0.14100000
C        0.01490000      -0.04340000      -0.06480000
N       -1.18730000      -0.63070000       0.02250000
C       -1.16740000      -1.96600000       0.04710000
C       -0.01100000      -2.72500000      -0.00820000
C        1.17500000      -1.98920000      -0.08650000
O        2.35110000      -2.63560000      -0.13430000
N        1.20720000      -0.66440000      -0.11360000
H        0.90840000       1.77950000       0.03480000
H       -0.81540000       1.79400000       0.11790000
H       -2.13750000      -2.45340000       0.11740000
H       -0.00930000      -3.80530000       0.01440000
H        3.03240000      -1.95010000      -0.18830000
