18
Properties=species:S:1:pos:R:3 gdb_13359=T pbc="F F F"
C        0.25050000       1.58410000      -0.40010000
C        0.12080000       0.15520000      -0.15040000
C        0.01670000      -1.02780000       0.05210000
C       -0.11880000      -2.45450000       0.30890000
C        0.37050000      -2.91400000       1.71920000
C       -0.53740000      -4.08020000       2.02530000
C       -1.58750000      -4.12770000       1.20770000
C       -1.57780000      -3.00200000       0.20220000
H        0.98570000       1.78750000      -1.18680000
H       -0.70230000       2.02210000      -0.71850000
H        0.57430000       2.11940000       0.49970000
H        0.48040000      -3.00330000      -0.42880000
H        1.43450000      -3.17290000       1.71510000
H        0.24600000      -2.11220000       2.45920000
H       -0.35400000      -4.75990000       2.85030000
H       -2.39280000      -4.85200000       1.26270000
H       -2.30900000      -2.22760000       0.46980000
H       -1.81830000      -3.31990000      -0.81770000
