16
Properties=species:S:1:pos:R:3 gdb_37757=T pbc="F F F"
C       -0.10490000       1.37280000       0.38040000
N        1.31120000       1.04970000      -0.00470000
C        2.04910000       0.29750000       0.93400000
C        2.25410000      -0.98120000       0.57030000
C        1.56830000      -1.26160000      -0.68970000
C        1.54810000      -2.38940000      -1.40590000
O       -1.63890000      -0.15110000      -0.93110000
C       -0.58200000       0.29890000      -0.61560000
C        0.88460000       0.04610000      -1.04470000
H       -0.35640000       1.18020000       1.42840000
H       -0.40320000       2.39160000       0.11450000
H        2.38750000       0.79100000       1.83690000
H        2.84900000      -1.70440000       1.11070000
H        0.98170000      -2.47210000      -2.32610000
H        2.09350000      -3.26910000      -1.08310000
H        1.07870000       0.37170000      -2.07160000
