19
Properties=species:S:1:pos:R:3 gdb_69986=T pbc="F F F"
C        0.07090000       1.51630000      -0.00580000
C       -0.03860000       0.01290000       0.03560000
C       -0.92990000      -0.72000000       0.99780000
C        0.57590000      -0.86200000       1.11410000
C        1.33090000      -1.91910000       0.28590000
C        0.35580000      -2.89610000      -0.38540000
O       -0.30650000      -2.02430000      -1.32370000
C        0.40280000      -0.78640000      -1.21770000
O        1.72760000      -1.16920000      -0.89320000
H        1.04930000       1.82850000      -0.38740000
H       -0.69950000       1.95840000      -0.64850000
H       -0.04910000       1.94430000       0.99450000
H       -1.40930000      -0.12410000       1.76970000
H       -1.53480000      -1.53910000       0.62980000
H        1.08140000      -0.42780000       1.96940000
H        2.20360000      -2.36150000       0.76190000
H        0.88520000      -3.68930000      -0.92430000
H       -0.37310000      -3.33900000       0.29940000
H        0.36460000      -0.25760000      -2.16980000
