14
Properties=species:S:1:pos:R:3 gdb_43556=T pbc="F F F"
N       -0.11230000       1.21750000      -0.54300000
C       -0.03960000       0.05550000      -0.09210000
O        1.03270000      -0.67190000       0.37680000
C        0.19220000      -1.83480000       0.69620000
C        0.20740000      -2.17930000       2.09790000
C        0.21920000      -2.48840000       3.25820000
C       -1.05600000      -1.06630000       0.11950000
C       -2.19260000      -0.81310000       0.97250000
C       -3.14320000      -0.61090000       1.67750000
H        0.79640000       1.68320000      -0.54220000
H        0.49660000      -2.68290000       0.07670000
H        0.22810000      -2.75460000       4.28680000
H       -1.37360000      -1.49550000      -0.83590000
H       -3.97960000      -0.42020000       2.30360000
