15
Properties=species:S:1:pos:R:3 gdb_30031=T pbc="F F F"
C        0.02200000       1.45640000       0.01860000
N        0.00500000       0.01240000       0.01980000
C       -0.06090000      -0.82650000      -1.08390000
N       -0.06150000      -2.10490000      -0.83030000
C        0.01000000      -2.15870000       0.55850000
C        0.05630000      -3.01650000       1.61970000
O        0.12400000      -2.28370000       2.76740000
C        0.12260000      -0.94560000       2.46380000
C        0.05270000      -0.83610000       1.11020000
H        0.94140000       1.84030000       0.47470000
H       -0.02800000       1.81260000      -1.01260000
H       -0.83540000       1.86120000       0.56790000
H       -0.10790000      -0.39650000      -2.07690000
H        0.05170000      -4.08530000       1.74190000
H        0.17250000      -0.27190000       3.29990000
