18
Properties=species:S:1:pos:R:3 gdb_8337=T pbc="F F F"
O        0.60080000       0.60390000      -0.92700000
C       -0.07440000      -0.24480000      -0.03500000
C        0.23200000      -0.17530000       1.48640000
C       -1.27080000      -0.42470000       1.74810000
C       -1.76830000      -1.78180000       2.29340000
C       -2.41630000      -0.93430000       3.40460000
O       -1.90930000       0.28550000       2.82320000
C       -1.57140000       0.00710000       0.29480000
H        0.48870000       1.50940000      -0.61840000
H        0.08020000      -1.25530000      -0.42370000
H        0.96290000      -0.86640000       1.91370000
H        0.48840000       0.84790000       1.78380000
H       -2.46410000      -2.31620000       1.64360000
H       -0.98350000      -2.46620000       2.62130000
H       -3.51220000      -0.94630000       3.43800000
H       -2.02860000      -1.09620000       4.41730000
H       -1.79800000       1.07920000       0.27300000
H       -2.33780000      -0.53260000      -0.26720000
