16
Properties=species:S:1:pos:R:3 gdb_34620=T pbc="F F F"
C        0.06290000      -1.25180000      -0.05130000
C       -0.01520000      -0.04950000      -0.01540000
C       -0.04380000       1.36970000       0.02020000
C       -1.18450000       2.07540000      -0.01360000
C       -1.23570000       3.58500000       0.01750000
N       -0.45700000       4.28460000       1.03280000
C        0.64040000       3.91260000       1.52810000
O        1.46570000       2.86300000       1.28340000
C        1.28470000       2.10140000       0.08390000
H        0.11180000      -2.31220000      -0.07830000
H       -2.13240000       1.54770000      -0.06930000
H       -0.96630000       3.98550000      -0.97390000
H       -2.27620000       3.89030000       0.16800000
H        1.08190000       4.50550000       2.33000000
H        2.11600000       1.39690000       0.07240000
H        1.38800000       2.77120000      -0.77990000
