18
Properties=species:S:1:pos:R:3 gdb_77627=T pbc="F F F"
C        0.00780000       1.56510000      -0.00910000
C        0.07690000       0.05560000      -0.04240000
C        0.68540000      -0.73850000      -1.15220000
C        0.03740000      -1.80330000      -1.97230000
O        1.78720000      -0.03520000      -1.73250000
C        2.53370000      -0.09140000      -0.49260000
C        1.35970000      -0.74100000       0.23880000
C        1.45130000      -1.75360000       1.23020000
N        1.52520000      -2.58240000       2.03650000
H        0.80040000       2.01040000      -0.61390000
H       -0.94930000       1.90450000      -0.41780000
H        0.08920000       1.94370000       1.01440000
H       -0.77890000      -0.45340000       0.39610000
H       -0.47350000      -1.35410000      -2.83130000
H        0.77980000      -2.51270000      -2.34820000
H       -0.70400000      -2.34580000      -1.38000000
H        3.39460000      -0.75930000      -0.59030000
H        2.85890000       0.89630000      -0.14980000
