23
Properties=species:S:1:pos:R:3 gdb_122216=T pbc="F F F"
C       -0.44360000       1.46280000      -0.06140000
C        0.02670000       0.00920000       0.03630000
C        0.67240000      -0.50100000      -1.25640000
C        1.13870000      -1.96140000      -1.15250000
C        1.68380000      -2.52870000      -2.44900000
C        3.02660000      -1.99010000      -2.93460000
O        3.33000000      -2.42620000      -4.24050000
C        1.25730000      -3.85100000      -2.92380000
O        0.72290000      -2.65320000      -3.51780000
H        0.39280000       2.13630000      -0.27930000
H       -1.18280000       1.58630000      -0.86050000
H       -0.90450000       1.79700000       0.87330000
H        0.74170000      -0.09060000       0.86400000
H       -0.82460000      -0.63530000       0.29300000
H       -0.04380000      -0.42160000      -2.08350000
H        1.51710000       0.15000000      -1.51530000
H        1.91030000      -2.05490000      -0.37590000
H        0.29490000      -2.58120000      -0.82840000
H        3.01930000      -0.89010000      -2.87370000
H        3.82510000      -2.34720000      -2.27360000
H        2.50790000      -2.32650000      -4.74010000
H        1.91640000      -4.42430000      -3.57070000
H        0.54500000      -4.42760000      -2.33630000
