21
Properties=species:S:1:pos:R:3 gdb_89573=T pbc="F F F"
C       -0.80530000       1.22950000       0.34480000
C        0.03710000       0.00050000       0.06670000
C        0.67130000      -0.15350000      -1.32910000
C        2.02910000      -0.19890000      -0.57230000
C        2.82530000      -1.52520000      -0.54730000
C        4.14620000      -1.25190000      -1.30700000
C        4.20770000       0.25620000      -1.34740000
C        3.07050000       0.81890000      -0.94340000
O        1.34480000       0.07160000       0.68520000
H       -0.30130000       2.13460000      -0.00880000
H       -1.77630000       1.15140000      -0.15710000
H       -0.98440000       1.33540000       1.41960000
H       -0.49470000      -0.90050000       0.40480000
H        0.41190000      -1.05170000      -1.89240000
H        0.54900000       0.72180000      -1.97190000
H        3.03160000      -1.74690000       0.50390000
H        2.25960000      -2.36660000      -0.95580000
H        5.01940000      -1.69640000      -0.81580000
H        4.12600000      -1.66580000      -2.32420000
H        5.08240000       0.79420000      -1.69760000
H        2.85910000       1.88160000      -0.90270000
