21
Properties=species:S:1:pos:R:3 gdb_88527=T pbc="F F F"
C        0.01310000       1.56120000      -0.21670000
C        0.05470000       0.06350000       0.00070000
C        1.35110000      -0.70510000      -0.07170000
C        0.62740000      -0.57570000       1.25000000
C        1.24460000       0.19760000       2.35900000
C        0.60810000       1.16650000       3.40180000
C        2.14430000       1.23470000       3.52240000
C        2.22030000      -0.30560000       3.46350000
O        2.24020000       1.26890000       2.04350000
H        0.88110000       2.05090000       0.22930000
H       -0.00450000       1.79250000      -1.28770000
H       -0.88690000       1.99970000       0.22980000
H       -0.80900000      -0.46340000      -0.39880000
H        1.37080000      -1.67190000      -0.56260000
H        2.26260000      -0.12490000      -0.17020000
H        0.10860000      -1.46000000       1.61210000
H        0.12990000       2.05260000       2.98330000
H        0.04560000       0.72740000       4.22990000
H        2.76600000       1.93860000       4.07460000
H        1.80170000      -0.87600000       4.29710000
H        3.16290000      -0.71210000       3.09510000
