16
Properties=species:S:1:pos:R:3 gdb_15980=T pbc="F F F"
C       -0.00430000       1.36650000      -0.10490000
N       -0.05140000      -0.07530000      -0.28940000
C       -1.11270000      -0.67670000       0.02120000
N       -2.36530000      -0.31390000       0.55760000
C       -2.94180000      -1.67030000       0.41710000
C       -1.54710000      -2.12210000      -0.05880000
C       -1.12180000      -3.18290000      -0.97040000
O       -0.83330000      -3.23050000       0.43370000
H        1.02390000       1.66930000       0.11390000
H       -0.30200000       1.88450000      -1.02700000
H       -0.64860000       1.72800000       0.71080000
H       -2.86260000       0.53130000       0.31850000
H       -3.27570000      -2.10680000       1.36250000
H       -3.73260000      -1.75850000      -0.33590000
H       -1.84900000      -3.91250000      -1.32420000
H       -0.26300000      -3.00770000      -1.61540000
