23
Properties=species:S:1:pos:R:3 gdb_115567=T pbc="F F F"
C        0.09260000       1.60910000       0.04290000
C       -0.07950000       0.08640000      -0.01410000
C        0.64980000      -0.53410000      -1.19920000
C        2.20310000      -0.53630000      -1.23190000
C        2.17330000      -1.96330000      -1.83520000
C        0.69440000      -2.11350000      -1.38970000
C        0.49670000      -2.92470000      -0.10790000
C       -0.27480000      -2.57020000      -2.45090000
O       -0.00570000      -2.75490000      -3.61180000
H        1.14900000       1.88560000       0.12510000
H       -0.30520000       2.08660000      -0.85920000
H       -0.43090000       2.03430000       0.90450000
H        0.28650000      -0.35440000       0.92100000
H       -1.14860000      -0.15720000      -0.07130000
H        0.27050000      -0.08670000      -2.12610000
H        2.68940000       0.24710000      -1.81730000
H        2.62570000      -0.52280000      -0.22190000
H        2.24870000      -1.96890000      -2.92450000
H        2.87620000      -2.69360000      -1.42700000
H        1.14840000      -2.56800000       0.69460000
H       -0.53680000      -2.87150000       0.25230000
H        0.73730000      -3.97930000      -0.28250000
H       -1.32260000      -2.70020000      -2.08590000
