14
Properties=species:S:1:pos:R:3 gdb_85116=T pbc="F F F"
O        0.42370000       1.01520000      -0.57540000
C        0.15840000      -0.14350000       0.13740000
C        0.03790000      -0.07430000       1.69660000
C       -1.24780000      -0.89290000       1.60380000
O       -1.95390000      -1.47310000       2.36850000
C       -1.32220000      -0.68930000       0.04520000
O       -2.14770000       0.42280000      -0.25180000
C       -1.59690000      -1.84800000      -0.79320000
N       -1.81090000      -2.79100000      -1.42710000
H       -0.37890000       1.55320000      -0.56490000
H        0.87380000      -0.90660000      -0.17600000
H        0.84340000      -0.51250000       2.28920000
H       -0.15180000       0.94280000       2.05560000
H       -3.06180000       0.20120000      -0.03700000
