15
Properties=species:S:1:pos:R:3 gdb_55603=T pbc="F F F"
N        0.58560000       0.23790000      -0.64040000
C       -0.10810000       0.12200000       0.51960000
O        0.10090000       0.78600000       1.51320000
C       -1.28340000      -0.87610000       0.49550000
C       -1.08710000      -2.14880000      -0.29040000
O       -0.51230000      -2.25420000      -1.34650000
O       -1.68030000      -3.19570000       0.35170000
C       -1.63490000      -4.44050000      -0.24190000
N       -2.20320000      -5.38680000       0.35600000
H        1.39210000       0.84100000      -0.63940000
H        0.46940000      -0.45030000      -1.36940000
H       -1.55330000      -1.10080000       1.52590000
H       -2.13760000      -0.35610000       0.04100000
H       -1.09200000      -4.44190000      -1.18640000
H       -2.09900000      -6.24830000      -0.17820000
