15
Properties=species:S:1:pos:R:3 gdb_55611=T pbc="F F F"
C       -2.11150000       0.65480000      -0.33120000
C       -1.03810000      -0.37000000      -0.22020000
N       -0.81140000      -0.96310000       0.97390000
H       -1.51450000      -0.89980000       1.68960000
H       -0.13460000      -1.70410000       1.06750000
N       -0.28080000      -0.66370000      -1.25490000
C       -0.20500000       0.06780000      -2.47310000
C       -0.11480000       1.45880000      -2.39620000
N       -0.07630000       2.61500000      -2.24140000
C       -0.05760000      -0.68610000      -3.64190000
N        0.07360000      -1.36410000      -4.58060000
H       -1.69690000       1.66970000      -0.32130000
H       -2.61060000       0.53840000      -1.29800000
H       -2.83030000       0.54980000       0.48470000
H        0.35920000      -1.44840000      -1.15860000
