18
Properties=species:S:1:pos:R:3 gdb_19534=T pbc="F F F"
O        0.18650000       1.03910000       0.70510000
C        0.03410000       0.01860000      -0.26720000
C       -1.35920000      -0.58630000      -0.25020000
C       -1.63800000      -2.08660000      -0.15190000
C       -0.51300000      -3.03810000       0.25450000
C       -0.30750000      -2.72980000       1.75640000
O       -0.88740000      -1.43970000       2.00380000
C       -1.87620000      -1.19160000       1.02720000
H        0.03500000       0.60700000       1.55500000
H        0.22180000       0.48770000      -1.23820000
H        0.80090000      -0.75840000      -0.14010000
H       -2.10050000      -0.03260000      -0.82060000
H       -2.46470000      -2.48420000      -0.72830000
H       -0.81810000      -4.07700000       0.10430000
H        0.40380000      -2.88410000      -0.32170000
H       -0.80960000      -3.48070000       2.38270000
H        0.74420000      -2.68240000       2.05290000
H       -2.85490000      -0.95390000       1.43140000
