15
Properties=species:S:1:pos:R:3 gdb_74256=T pbc="F F F"
N        0.04730000       1.33770000       0.14820000
C        0.00750000      -0.02040000       0.01030000
N       -1.08070000      -0.69020000      -0.11990000
C       -0.75180000      -2.12500000      -0.06820000
C       -1.33430000      -2.85660000      -1.20240000
N       -1.78810000      -3.46930000      -2.06990000
C        0.78070000      -2.23360000      -0.01980000
N        1.42400000      -1.61370000      -1.18600000
C        1.26630000      -0.83700000       0.07270000
H        0.87230000       1.81040000      -0.18580000
H       -0.82150000       1.81270000      -0.05140000
H       -1.17890000      -2.55830000       0.84710000
H        1.25710000      -3.06290000       0.48940000
H        2.38300000      -1.95060000      -1.24780000
H        2.13340000      -0.52550000       0.64410000
