20
Properties=species:S:1:pos:R:3 gdb_59796=T pbc="F F F"
C        0.38340000       1.89780000       0.16070000
C       -0.08440000       0.44550000       0.28560000
C        0.20120000      -0.34930000      -1.00000000
N        0.59330000      -0.16940000       1.42140000
C        0.05420000      -1.15910000       2.02670000
N       -1.11740000      -1.80920000       1.77880000
C        0.78740000      -1.77670000       3.21620000
N        2.00500000      -1.24270000       3.42740000
O        0.27170000      -2.66330000       3.87960000
H        1.46440000       1.93180000      -0.00930000
H       -0.11570000       2.40190000      -0.67310000
H        0.16990000       2.45240000       1.07890000
H       -1.17860000       0.46210000       0.44410000
H        1.27860000      -0.37530000      -1.19150000
H       -0.15140000      -1.38150000      -0.91640000
H       -0.29110000       0.11440000      -1.86100000
H       -1.81920000      -1.39700000       1.18990000
H       -1.40460000      -2.44990000       2.50520000
H        2.28890000      -0.48070000       2.83010000
H        2.55420000      -1.54180000       4.21390000
