22
Properties=species:S:1:pos:R:3 gdb_107846=T pbc="F F F"
C       -0.02780000       1.51670000       0.09480000
C       -0.06040000      -0.00870000      -0.06850000
C        0.70830000      -0.50810000      -1.27310000
C        2.24250000      -0.38750000      -1.43250000
N        2.17260000      -1.55540000      -2.37170000
C        1.05450000      -1.22380000      -3.39410000
C        0.29590000      -2.46880000      -2.88620000
C        0.96270000      -2.05010000      -1.57800000
C        0.28880000      -0.07670000      -2.69890000
H        1.00040000       1.88400000       0.18300000
H       -0.48750000       2.02040000      -0.76150000
H       -0.56910000       1.82740000       0.99350000
H        0.34850000      -0.47810000       0.83620000
H       -1.10300000      -0.34680000      -0.14050000
H        2.66560000       0.53840000      -1.83770000
H        2.80700000      -0.69330000      -0.54550000
H        1.36380000      -1.10450000      -4.43170000
H       -0.79330000      -2.48370000      -2.96990000
H        0.72770000      -3.40140000      -3.25540000
H        1.14070000      -2.71740000      -0.73240000
H       -0.78850000      -0.12310000      -2.88530000
H        0.64180000       0.92550000      -2.95710000
