23
Properties=species:S:1:pos:R:3 gdb_100289=T pbc="F F F"
C       -0.39530000       1.74640000      -0.31010000
C       -0.16260000       0.23940000      -0.14490000
O        0.79650000       0.00570000       0.87950000
C       -1.45620000      -0.60980000       0.06840000
C       -1.06270000      -2.05830000       0.41730000
C       -2.33990000      -0.03670000       1.18680000
O       -1.56140000       0.09990000       2.37820000
C       -2.31200000      -0.61140000      -1.22030000
O       -1.63540000      -1.11310000      -2.36020000
H        0.56570000       2.22970000      -0.50400000
H       -1.06540000       1.98210000      -1.14280000
H       -0.80700000       2.18590000       0.60450000
H        0.29880000      -0.13860000      -1.06320000
H        0.34920000       0.20490000       1.71240000
H       -0.56620000      -2.10590000       1.38600000
H       -1.94970000      -2.70290000       0.45000000
H       -0.36250000      -2.46630000      -0.31900000
H       -2.74760000       0.93870000       0.88470000
H       -3.19200000      -0.71070000       1.36510000
H       -2.10140000       0.51770000       3.05490000
H       -3.23920000      -1.17770000      -1.03230000
H       -2.60790000       0.40840000      -1.48470000
H       -1.45740000      -2.04730000      -2.21400000
