15
Properties=species:S:1:pos:R:3 gdb_15965=T pbc="F F F"
N       -0.27380000      -0.92970000      -0.77170000
C       -0.14960000       0.13680000      -0.34330000
C        0.03420000       1.50220000       0.15010000
N        0.15760000       1.64270000       1.62020000
C        1.30460000       2.58340000       1.48260000
C        1.43930000       2.13640000       0.02700000
C        2.59640000       1.60410000      -0.71410000
N        1.98810000       2.90870000      -1.06350000
H       -0.73400000       2.14310000      -0.30830000
H       -0.66680000       2.02020000       2.07260000
H        1.04360000       3.64660000       1.56400000
H        2.13870000       2.36300000       2.15510000
H        3.59070000       1.66710000      -0.28130000
H        2.43040000       0.75260000      -1.36870000
H        1.41490000       2.82570000      -1.90020000
