15
Properties=species:S:1:pos:R:3 gdb_75662=T pbc="F F F"
C       -0.04800000       1.60790000       0.06180000
C        0.04080000       0.09120000       0.00610000
C        1.10720000      -0.59820000      -0.90160000
O        1.28260000      -0.63110000      -2.08040000
C        1.72130000      -1.32990000       0.28360000
N        2.09950000      -0.24160000       1.23140000
C        0.69140000      -0.67870000       1.18220000
C        0.03160000      -1.25780000       2.30380000
N       -0.51600000      -1.71110000       3.21730000
H        0.90100000       2.03740000       0.38970000
H       -0.28160000       2.00090000      -0.93200000
H       -0.83670000       1.93060000       0.74790000
H       -0.92600000      -0.36110000      -0.24580000
H        2.17270000      -2.31200000       0.34540000
H        2.55240000      -0.68820000       2.02970000
