12
Properties=species:S:1:pos:R:3 gdb_438=T pbc="F F F"
O        0.00160000       0.03010000       0.00380000
C       -0.01470000       1.23200000       0.01060000
C       -1.27270000       2.11890000       0.03220000
C       -0.71290000       3.51530000       0.03210000
C        0.62140000       3.53350000       0.01440000
C        1.21880000       2.15290000      -0.00080000
H       -1.90390000       1.89350000      -0.83720000
H       -1.88020000       1.88430000       0.91600000
H       -1.34450000       4.39610000       0.04510000
H        1.22880000       4.43120000       0.01100000
H        1.85580000       1.93520000       0.86640000
H        1.83270000       1.94450000      -0.88670000
