16
Properties=species:S:1:pos:R:3 gdb_36649=T pbc="F F F"
N        0.56490000      -0.10670000       1.39280000
C        0.26080000       0.58120000       0.51580000
C       -0.11250000       1.47190000      -0.60090000
O        0.94270000       2.30200000      -1.01950000
C        1.26500000       3.32830000      -0.11360000
C        2.31280000       3.11920000       1.02710000
C        3.42550000       2.97100000      -0.03650000
C        2.52130000       4.16480000      -0.42780000
O        2.50010000       4.58710000       0.99090000
H       -0.39690000       0.85770000      -1.46010000
H       -0.99330000       2.05720000      -0.29630000
H        0.38650000       3.91120000       0.18590000
H        2.20320000       2.64660000       2.00130000
H        4.42360000       3.24560000       0.30490000
H        3.40780000       2.08750000      -0.67520000
H        2.66150000       4.93590000      -1.18480000
