9
Properties=species:S:1:pos:R:3 gdb_211=T pbc="F F F"
O        0.11630000       1.35060000      -0.06810000
C        0.06820000       0.00690000      -0.07940000
C       -0.03870000      -0.82640000      -1.14540000
O       -0.04760000      -2.11040000      -0.64380000
C        0.05470000      -1.95960000       0.68450000
N        0.12720000      -0.72910000       1.08810000
H        0.19290000       1.61660000       0.85630000
H       -0.11200000      -0.70820000      -2.20980000
H        0.06670000      -2.85660000       1.28300000
