17
Properties=species:S:1:pos:R:3 gdb_1925=T pbc="F F F"
C       -0.03240000       1.52500000       0.02400000
C        0.03380000       0.01690000       0.02770000
C        0.96260000      -0.81510000      -0.92340000
C        0.61640000      -1.91990000       0.10210000
C        0.66680000      -0.82290000       1.19120000
O       -0.79160000      -2.12870000      -0.09560000
C       -1.27490000      -0.76940000      -0.15820000
H        0.95960000       1.96600000       0.16440000
H       -0.43400000       1.90120000      -0.92400000
H       -0.67910000       1.89470000       0.82820000
H        0.64280000      -0.97280000      -1.95690000
H        2.00360000      -0.48850000      -0.87990000
H        1.12510000      -2.88000000       0.16970000
H        1.67940000      -0.49700000       1.43740000
H        0.07590000      -0.98770000       2.09610000
H       -2.00410000      -0.58830000       0.64160000
H       -1.75690000      -0.58180000      -1.12610000
