18
Properties=species:S:1:pos:R:3 gdb_30184=T pbc="F F F"
C       -0.03980000       1.42780000       0.06630000
N       -0.08130000      -0.01380000       0.15380000
C       -1.44460000      -0.59380000       0.14130000
C       -1.20740000      -1.84880000       0.90620000
C        0.00200000      -1.86680000       1.52290000
C        0.74750000      -0.60270000       1.23510000
N        0.18330000      -3.00870000       2.25890000
C       -0.93490000      -3.68200000       2.07770000
N       -1.82610000      -3.01910000       1.26280000
H        0.99780000       1.76360000      -0.03110000
H       -0.58140000       1.76470000      -0.82450000
H       -0.48010000       1.94030000       0.94450000
H       -2.18790000       0.05970000       0.63950000
H       -1.78810000      -0.73630000      -0.89330000
H        1.77650000      -0.75270000       0.88430000
H        0.79940000       0.05160000       2.12510000
H       -1.16470000      -4.65010000       2.49710000
H       -2.73170000      -3.35360000       0.98050000
