19
Properties=species:S:1:pos:R:3 gdb_81993=T pbc="F F F"
C       -0.23820000       1.60640000       0.08270000
C       -0.00930000       0.10120000       0.07110000
C        0.52000000      -0.57320000      -1.19390000
C        1.91320000      -0.19860000      -1.48720000
N        1.67920000      -1.24150000      -0.46750000
C        1.24210000      -0.53330000       0.80550000
C        2.28580000       0.35990000       1.47610000
C        0.81410000      -1.55970000       1.76160000
N        0.45770000      -2.34030000       2.53580000
H        0.62680000       2.16630000      -0.28290000
H       -1.08940000       1.85950000      -0.55810000
H       -0.46790000       1.96090000       1.09280000
H       -0.91330000      -0.40340000       0.41810000
H       -0.09170000      -1.12820000      -1.89720000
H        2.36230000      -0.61320000      -2.38420000
H        2.30480000       0.77330000      -1.20460000
H        2.58870000       1.18770000       0.83320000
H        1.88700000       0.77950000       2.40370000
H        3.17230000      -0.23180000       1.72120000
