15
Properties=species:S:1:pos:R:3 gdb_79687=T pbc="F F F"
O        0.09670000       1.41170000      -0.07560000
C       -0.05120000       0.04820000       0.03900000
C       -0.41530000      -0.74400000       1.24670000
C       -1.60390000      -0.16890000       2.05560000
O       -2.02100000       1.08980000       1.48540000
C       -2.47500000      -0.14410000       0.88700000
C       -1.37240000      -0.72480000      -0.02930000
C       -1.62130000      -1.82410000      -0.95620000
O       -2.72410000      -2.24550000      -1.22800000
H       -0.60260000       1.80450000       0.46670000
H        0.71070000      -0.45390000      -0.55590000
H        0.15350000      -1.60140000       1.58560000
H       -1.80860000      -0.33420000       3.10520000
H       -3.53910000      -0.29450000       0.76890000
H       -0.70320000      -2.26230000      -1.41040000
