24
Properties=species:S:1:pos:R:3 gdb_100313=T pbc="F F F"
C       -0.02260000       1.58830000      -0.02310000
C       -0.04750000       0.05800000       0.03070000
C        0.71810000      -0.56500000       1.22130000
C        0.66900000      -2.09910000       1.13800000
O        2.06750000      -0.08380000       1.28700000
C        2.94300000      -0.41900000       0.23330000
C        0.08410000      -0.12890000       2.54450000
C        0.82970000      -0.21010000       3.82190000
N        0.50220000       1.10110000       3.22680000
H        1.00200000       1.96410000      -0.09700000
H       -0.57710000       1.95030000      -0.89430000
H       -0.47220000       2.02790000       0.87130000
H       -1.08440000      -0.29550000       0.08710000
H        0.35160000      -0.35360000      -0.90440000
H        0.99850000      -2.46960000       0.16260000
H        1.29780000      -2.54280000       1.91460000
H       -0.35680000      -2.44850000       1.29020000
H        3.10130000      -1.50210000       0.14650000
H        2.60080000      -0.03790000      -0.73840000
H        3.90150000       0.05110000       0.46830000
H       -0.99140000      -0.29650000       2.56730000
H        0.30550000      -0.44260000       4.74470000
H        1.86290000      -0.53970000       3.77720000
H        1.33810000       1.44220000       2.75630000
