20
Properties=species:S:1:pos:R:3 gdb_66485=T pbc="F F F"
C        0.12440000       1.52580000       0.05550000
C       -0.03920000       0.05120000      -0.09060000
C        0.72990000      -1.00000000      -0.80170000
N        0.72340000      -0.96490000       0.70470000
C       -0.53120000      -1.79590000       0.94670000
C       -0.48290000      -2.98340000      -0.02480000
C       -0.50070000      -1.87960000      -1.11750000
C       -0.90140000      -2.11400000      -2.54990000
C       -1.26000000      -0.91200000      -0.10750000
H        1.18670000       1.78020000       0.12580000
H       -0.30090000       2.05930000      -0.80200000
H       -0.37140000       1.89220000       0.96160000
H        1.69080000      -0.96200000      -1.30310000
H       -0.78930000      -1.88320000       2.00090000
H        0.37070000      -3.66610000       0.02500000
H       -1.42150000      -3.54800000      -0.01050000
H       -1.87030000      -2.62020000      -2.61620000
H       -0.97710000      -1.16850000      -3.09900000
H       -0.16340000      -2.73850000      -3.06790000
H       -2.32360000      -0.68930000      -0.15840000
