17
Properties=species:S:1:pos:R:3 gdb_1866=T pbc="F F F"
C       -0.15340000       1.53300000      -0.00240000
C        0.07700000       0.02440000       0.02660000
C        0.85160000      -0.52190000      -1.19720000
C        1.32230000      -1.91680000      -0.76350000
C        1.50860000      -1.81330000       0.75700000
O        2.03390000      -2.63640000       1.46060000
C        0.90660000      -0.48180000       1.21930000
H        0.80060000       2.07290000      -0.02190000
H       -0.72220000       1.82910000      -0.89050000
H       -0.70980000       1.87160000       0.87770000
H       -0.89980000      -0.47900000       0.05540000
H        0.24300000      -0.53100000      -2.10550000
H        1.71770000       0.12310000      -1.39440000
H        0.54720000      -2.67350000      -0.94420000
H        2.23440000      -2.27640000      -1.24570000
H        1.74490000       0.20190000       1.42010000
H        0.35860000      -0.59850000       2.15740000
