17
Properties=species:S:1:pos:R:3 gdb_71325=T pbc="F F F"
C       -0.04510000       1.47110000      -0.13700000
C        0.01950000      -0.01260000       0.08540000
C       -1.24440000      -0.85280000       0.39580000
N       -0.42440000      -1.82210000       1.22960000
C        0.72710000      -0.81540000       1.20870000
C        1.39220000      -1.61080000       0.06040000
O        0.82900000      -0.68930000      -0.91890000
C        0.35540000      -2.68440000       0.34230000
N        0.21870000      -3.87970000      -0.01630000
H        0.95900000       1.90310000      -0.16520000
H       -0.53320000       1.68450000      -1.09430000
H       -0.61850000       1.95890000       0.65700000
H       -1.95730000      -0.33070000       1.04170000
H       -1.76650000      -1.30460000      -0.45160000
H        1.16180000      -0.47210000       2.14380000
H        2.44360000      -1.83240000      -0.12280000
H       -0.63730000      -4.27730000       0.38150000
