17
Properties=species:S:1:pos:R:3 gdb_61977=T pbc="F F F"
C       -0.19270000       1.43990000      -0.01040000
C        0.06910000      -0.04500000      -0.00890000
O        1.14590000      -0.57850000      -0.03150000
O       -1.10020000      -0.73710000       0.02450000
C       -0.97800000      -2.16480000       0.03430000
C       -2.41920000      -2.70320000      -0.02740000
N       -3.18900000      -2.30490000      -1.20520000
C       -2.38580000      -4.16920000       0.07620000
N       -2.32410000      -5.31980000       0.15280000
H        0.75590000       1.97360000      -0.04600000
H       -0.80800000       1.71370000      -0.87220000
H       -0.74710000       1.72340000       0.88870000
H       -0.39410000      -2.49870000      -0.82900000
H       -0.46220000      -2.49170000       0.94260000
H       -2.95100000      -2.32420000       0.85480000
H       -3.15780000      -1.29190000      -1.27230000
H       -2.75150000      -2.67230000      -2.04600000
