11
Properties=species:S:1:pos:R:3 gdb_23959=T pbc="F F F"
C        0.13500000      -1.20900000      -0.00580000
C        0.07100000      -0.00820000       0.00160000
C       -0.01570000       1.39850000       0.01050000
C       -1.14570000       2.18060000       0.03120000
O       -0.74940000       3.49100000       0.03260000
C        0.59780000       3.42970000       0.01280000
N        1.09510000       2.23760000      -0.00100000
C       -2.52030000       1.88280000       0.04960000
N       -3.64790000       1.61800000       0.06450000
H        0.19030000      -2.27010000      -0.01210000
H        1.12380000       4.37170000       0.01030000
