18
Properties=species:S:1:pos:R:3 gdb_31739=T pbc="F F F"
C        0.13340000       1.38250000      -0.10370000
N       -0.06860000      -0.04150000       0.07150000
C        0.56950000      -0.66240000       1.12570000
C        1.12510000      -0.14040000       2.25000000
O        1.58100000      -1.22470000       3.01450000
C        1.26890000      -2.29890000       2.27450000
N        1.55090000      -3.52860000       2.79480000
C        2.57240000      -3.69430000       3.81550000
N        0.67790000      -2.04990000       1.14040000
H        1.19450000       1.66760000      -0.19100000
H       -0.39610000       1.71610000      -0.99890000
H       -0.28820000       1.92220000       0.75220000
H       -0.02170000      -0.59220000      -0.77340000
H        1.28160000       0.83600000       2.66590000
H        1.47310000      -4.26060000       2.10590000
H        3.58930000      -3.48300000       3.45450000
H        2.36270000      -3.02520000       4.65240000
H        2.53640000      -4.72240000       4.18180000
