21
Properties=species:S:1:pos:R:3 gdb_74448=T pbc="F F F"
C       -0.06400000       1.53480000       0.02510000
C        0.00610000       0.04090000      -0.01210000
C       -0.14610000      -0.74740000      -1.08060000
C       -0.00700000      -2.21630000      -0.77540000
C       -1.16560000      -3.08210000      -1.25010000
C        1.42890000      -2.76470000      -0.99600000
O        1.77130000      -2.53890000       0.38560000
C        0.40690000      -2.20170000       0.72770000
C        0.26360000      -0.76790000       1.24660000
H        0.88210000       1.96510000       0.37740000
H       -0.28380000       1.95590000      -0.95970000
H       -0.83820000       1.87680000       0.72420000
H       -0.34400000      -0.38670000      -2.08610000
H       -1.24440000      -3.06600000      -2.34340000
H       -1.03630000      -4.12480000      -0.94120000
H       -2.11790000      -2.72200000      -0.84670000
H        1.46740000      -3.83250000      -1.25590000
H        2.07580000      -2.20250000      -1.67950000
H       -0.03700000      -2.96200000       1.38140000
H        1.18190000      -0.46300000       1.76390000
H       -0.55800000      -0.66050000       1.96890000
