12
Properties=species:S:1:pos:R:3 gdb_876=T pbc="F F F"
N       -0.01630000       1.37570000      -0.00090000
C       -0.09940000      -0.00900000       0.00470000
C       -1.11730000      -0.88660000       0.12190000
N       -0.64890000      -2.19800000       0.07730000
C        0.63250000      -2.05400000      -0.07640000
N        1.56800000      -3.04460000      -0.25760000
O        1.07420000      -0.78330000      -0.12980000
H        0.51480000       1.74690000       0.78050000
H        0.37900000       1.74550000      -0.85950000
H       -2.16470000      -0.65980000       0.24150000
H        1.23230000      -3.94940000       0.03930000
H        2.48900000      -2.82470000       0.09260000
