15
Properties=species:S:1:pos:R:3 gdb_11107=T pbc="F F F"
C        0.25590000       1.45180000      -0.02140000
N        0.36270000       0.00150000       0.06350000
C        0.47810000      -0.66880000      -0.98020000
C        0.60980000      -2.14560000      -1.29000000
C        0.65440000      -1.64160000      -2.76180000
O        0.51860000      -0.27410000      -2.31670000
C        1.94700000      -1.91800000      -3.49400000
O        2.84570000      -1.13250000      -3.62090000
H        1.06450000       1.90150000       0.56430000
H        0.29970000       1.84480000      -1.04330000
H       -0.68650000       1.76690000       0.43940000
H        1.52360000      -2.61330000      -0.91860000
H       -0.25310000      -2.75620000      -1.02260000
H       -0.19790000      -1.95140000      -3.37830000
H        2.00350000      -2.95530000      -3.90010000
