15
Properties=species:S:1:pos:R:3 gdb_19272=T pbc="F F F"
C        0.09870000       1.31130000      -0.13890000
O       -0.29960000      -0.00960000       0.19820000
C        0.51030000      -0.59310000       1.17280000
C        0.16980000      -2.02580000       1.55250000
C        0.43780000      -2.94830000       0.44410000
N        1.60860000      -2.50500000       1.27020000
C        1.90110000      -1.16900000       0.77550000
O        2.90860000      -0.73750000       0.31040000
H        1.11870000       1.33540000      -0.54100000
H       -0.60030000       1.66730000      -0.89820000
H        0.04810000       1.97640000       0.73640000
H        0.61820000       0.05570000       2.05770000
H       -0.32310000      -2.32690000       2.46770000
H        0.21410000      -3.99980000       0.58720000
H        0.36220000      -2.59710000      -0.58070000
