21
Properties=species:S:1:pos:R:3 gdb_84809=T pbc="F F F"
O       -0.08050000       1.29780000      -0.43080000
C       -0.08390000      -0.07980000      -0.10170000
C        0.68750000      -0.45210000       1.14810000
C        0.09110000      -1.43620000       1.81770000
C       -1.18920000      -1.87830000       1.14470000
C       -1.49140000      -0.71440000       0.15960000
C       -2.45850000       0.27470000       0.78580000
C       -3.22060000       1.26140000      -0.06750000
C       -3.94460000       0.11050000       0.58270000
H       -0.62680000       1.75330000       0.21840000
H        0.38060000      -0.56100000      -0.97360000
H        1.63310000       0.01770000       1.39410000
H        0.47390000      -1.91210000       2.71420000
H       -1.03520000      -2.82540000       0.60910000
H       -2.01240000      -2.05110000       1.84730000
H       -1.92770000      -1.07780000      -0.77640000
H       -2.15880000       0.62350000       1.77230000
H       -3.39450000       2.26080000       0.31740000
H       -3.05890000       1.22260000      -1.13890000
H       -4.27920000      -0.70280000      -0.05340000
H       -4.60610000       0.32260000       1.41530000
