20
Properties=species:S:1:pos:R:3 gdb_75410=T pbc="F F F"
C       -0.07270000       1.45950000       0.03070000
C       -0.02090000      -0.03180000      -0.12440000
N       -0.00310000      -0.59130000      -1.25720000
C        0.06020000      -2.05750000      -1.29620000
C       -1.31940000      -2.66560000      -1.19380000
C       -1.93820000      -2.93350000      -0.04370000
C       -1.37520000      -2.69190000       1.33750000
C       -1.09800000      -1.21970000       1.69050000
O        0.08980000      -0.69670000       1.08510000
H        0.79900000       1.80500000       0.59640000
H       -0.09670000       1.94240000      -0.94590000
H       -0.96000000       1.75310000       0.60450000
H        0.51740000      -2.33710000      -2.24960000
H        0.69510000      -2.44050000      -0.48670000
H       -1.84010000      -2.85250000      -2.12950000
H       -2.94600000      -3.34090000      -0.08390000
H       -2.07650000      -3.07510000       2.08750000
H       -0.43890000      -3.24510000       1.48340000
H       -1.96060000      -0.59350000       1.43210000
H       -0.93000000      -1.13680000       2.76940000
