13
Properties=species:S:1:pos:R:3 gdb_130553=T pbc="F F F"
O        0.01290000      -0.02910000       0.00400000
C       -0.01610000       1.17900000       0.00770000
C        1.16000000       2.01360000       0.00150000
C        2.20460000       2.60750000      -0.00440000
N       -1.24180000       1.87240000       0.01840000
C       -2.48600000       1.29280000       0.02580000
C       -3.38890000       2.31840000       0.03510000
C       -2.59420000       3.50070000       0.03270000
N       -1.30320000       3.23400000       0.02270000
H        3.11880000       3.14980000      -0.00990000
H       -2.58660000       0.22090000       0.02350000
H       -4.46400000       2.24160000       0.04260000
H       -2.92690000       4.52890000       0.03790000
