16
Properties=species:S:1:pos:R:3 gdb_25770=T pbc="F F F"
C       -0.04190000       1.50790000      -0.03760000
C        0.05260000      -0.01350000       0.01350000
O        1.13180000      -0.57830000       0.03770000
C       -1.19730000      -0.76870000       0.03220000
C       -1.37530000      -2.14810000       0.07700000
C       -2.76230000      -2.39310000       0.07820000
O       -3.41960000      -3.58490000       0.11440000
C       -3.41210000      -1.16830000       0.03420000
N       -2.45000000      -0.19890000       0.00680000
H        0.96620000       1.92220000      -0.04560000
H       -0.57240000       1.83990000      -0.93790000
H       -0.58260000       1.89880000       0.83240000
H       -0.57120000      -2.86730000       0.10500000
H       -2.76890000      -4.29220000       0.14150000
H       -4.46420000      -0.93740000       0.02120000
H       -2.63430000       0.78820000      -0.02690000
