16
Properties=species:S:1:pos:R:3 gdb_80203=T pbc="F F F"
C       -0.04660000       1.58230000       0.02750000
C        0.07340000       0.07530000       0.10550000
N        1.23280000      -0.71770000      -0.28880000
C        2.45960000       0.06530000       0.08920000
C        2.05190000       0.01990000       1.56990000
O        2.60560000       0.24210000       2.60400000
C        0.76390000      -0.69210000       1.20650000
C        0.17120000      -1.77020000       1.91430000
C       -0.32130000      -2.66750000       2.54600000
H        0.79140000       2.11760000       0.47600000
H       -0.13940000       1.89710000      -1.01750000
H       -0.95500000       1.89520000       0.55090000
H       -0.83590000      -0.43510000      -0.20820000
H        3.35430000      -0.53950000      -0.08100000
H        2.57450000       1.03220000      -0.40540000
H       -0.74850000      -3.46610000       3.10090000
