20
Properties=species:S:1:pos:R:3 gdb_126747=T pbc="F F F"
C        0.32300000       1.54990000       0.16570000
C       -0.09120000       0.09620000      -0.05980000
N        0.55940000      -0.49370000      -1.21760000
C        1.49230000      -1.46340000      -1.28230000
N        1.84130000      -1.69250000      -2.53340000
C        1.06940000      -0.80540000      -3.23100000
C        1.10140000      -0.69430000      -4.72200000
C        0.65520000      -1.98780000      -5.42130000
N        0.27680000      -0.05870000      -2.47200000
H        1.39780000       1.62560000       0.35480000
H        0.08340000       2.15040000      -0.71460000
H       -0.21060000       1.96190000       1.02730000
H        0.16830000      -0.52600000       0.80180000
H       -1.17290000       0.02460000      -0.20900000
H        1.87610000      -1.96430000      -0.40530000
H        0.46340000       0.14360000      -5.01670000
H        2.12410000      -0.45070000      -5.03360000
H        1.28120000      -2.82770000      -5.10860000
H       -0.38300000      -2.22910000      -5.17270000
H        0.73010000      -1.88630000      -6.50820000
