19
Properties=species:S:1:pos:R:3 gdb_92560=T pbc="F F F"
C       -0.52950000       1.50480000       0.08050000
C       -0.02230000       0.06590000       0.01430000
O        0.70590000      -0.16860000      -1.20330000
C        2.05990000      -0.51220000      -0.92890000
C        2.92260000       0.75400000      -0.87730000
O        2.64110000       1.33480000       0.40280000
C        2.27910000       0.28620000       1.27140000
C        0.90740000      -0.35130000       1.14560000
C        2.12120000      -1.00470000       0.52810000
H        0.30680000       2.20460000       0.12810000
H       -1.13880000       1.73080000      -0.79930000
H       -1.15380000       1.64180000       0.97040000
H       -0.88550000      -0.61560000       0.00550000
H        2.39700000      -1.23750000      -1.67350000
H        3.99240000       0.50710000      -0.95540000
H        2.65330000       1.47460000      -1.65270000
H        2.74240000       0.35430000       2.24990000
H        0.46100000      -0.75300000       2.04900000
H        2.54190000      -1.96150000       0.80700000
