15
Properties=species:S:1:pos:R:3 gdb_3439=T pbc="F F F"
C       -0.07210000       1.56790000       0.04990000
C        0.02100000       0.03500000       0.00410000
C        0.81040000      -0.49610000      -1.18290000
C        1.81130000      -1.30230000      -0.82110000
C        1.87520000      -1.39870000       0.66900000
O        2.13410000      -0.12420000       1.30880000
C        0.77970000      -0.56660000       1.19000000
H        0.92730000       1.99900000       0.14830000
H       -0.53360000       1.96140000      -0.86110000
H       -0.67600000       1.89720000       0.90130000
H       -0.99730000      -0.37990000      -0.01290000
H        0.58320000      -0.19310000      -2.19980000
H        2.50970000      -1.79600000      -1.48540000
H        2.28490000      -2.26190000       1.18460000
H        0.27010000      -0.76320000       2.13000000
