15
Properties=species:S:1:pos:R:3 gdb_16205=T pbc="F F F"
N       -0.11130000       1.28590000       0.25250000
C       -0.03950000       0.02700000       0.25070000
O        1.10790000      -0.70800000       0.30990000
C        0.81870000      -2.11600000       0.17710000
C       -0.65880000      -2.27400000       0.56640000
C       -1.21340000      -0.91300000       0.19620000
C       -2.59390000      -0.45310000       0.33190000
O       -2.06410000      -0.79990000      -0.95080000
H        0.81910000       1.70660000       0.26210000
H        1.00040000      -2.41420000      -0.86170000
H        1.51030000      -2.65590000       0.82630000
H       -1.16260000      -3.08160000       0.03370000
H       -0.75440000      -2.44480000       1.64350000
H       -3.34420000      -1.13640000       0.72840000
H       -2.77240000       0.60840000       0.48760000
