16
Properties=species:S:1:pos:R:3 gdb_11435=T pbc="F F F"
O        0.03930000       1.23300000       0.43840000
C       -0.03230000      -0.16460000       0.27620000
C       -1.37800000      -0.57760000      -0.32100000
C       -1.61380000      -2.08780000      -0.33070000
C       -2.40280000      -2.33630000       0.95670000
O       -2.63470000      -3.39220000       1.47860000
C       -2.84260000      -0.96220000       1.46760000
O       -2.44010000      -0.01860000       0.49170000
H       -0.80730000       1.49530000       0.82200000
H        0.78030000      -0.46200000      -0.39620000
H        0.12450000      -0.69550000       1.23290000
H       -1.48840000      -0.11400000      -1.30470000
H       -2.23430000      -2.39780000      -1.17850000
H       -0.70260000      -2.69090000      -0.34690000
H       -3.92960000      -0.91820000       1.59280000
H       -2.38110000      -0.77810000       2.44980000
