19
Properties=species:S:1:pos:R:3 gdb_91431=T pbc="F F F"
O       -0.27620000       1.47020000      -0.38780000
C       -0.02640000       0.09860000      -0.08490000
C       -1.41470000      -0.51310000       0.17910000
C       -1.48760000      -2.03740000       0.23510000
C       -0.20280000      -2.78690000       0.65440000
C        0.02020000      -2.90470000      -0.87260000
O       -1.38820000      -2.60350000      -1.09780000
C        0.90310000      -1.84210000      -1.47580000
C        0.82810000      -0.54880000      -1.15940000
H        0.56830000       1.93130000      -0.41200000
H        0.54890000       0.03870000       0.85690000
H       -1.79220000      -0.08320000       1.11390000
H       -2.08450000      -0.18160000      -0.62130000
H       -2.41620000      -2.34990000       0.72460000
H        0.54730000      -2.25840000       1.24410000
H       -0.42000000      -3.75270000       1.11350000
H        0.27510000      -3.89670000      -1.25610000
H        1.61030000      -2.15770000      -2.23820000
H        1.48300000       0.15260000      -1.67530000
