19
Properties=species:S:1:pos:R:3 gdb_94023=T pbc="F F F"
C        0.08670000       1.55910000      -0.07750000
C        0.01100000       0.03670000       0.01070000
O        0.61240000      -0.47490000      -1.17290000
C        0.86530000      -1.86160000      -1.12040000
C        1.94970000      -2.17470000      -0.06440000
C        1.57220000      -1.47850000       1.23120000
C        0.67430000      -0.49840000       1.25440000
C        2.10890000      -3.61490000       0.11230000
C        2.21840000      -4.80440000       0.24740000
H        1.12970000       1.88790000      -0.07060000
H       -0.38160000       1.90230000      -1.00370000
H       -0.43260000       2.01910000       0.76840000
H       -1.05500000      -0.26040000       0.02740000
H       -0.04770000      -2.42510000      -0.87400000
H        1.19670000      -2.16100000      -2.11760000
H        2.90340000      -1.76360000      -0.42750000
H        2.04870000      -1.82990000       2.14100000
H        0.38490000      -0.03320000       2.19340000
H        2.32510000      -5.85400000       0.36770000
