16
Properties=species:S:1:pos:R:3 gdb_133780=T pbc="F F F"
C        0.21200000       0.99970000       0.24090000
O       -0.18620000      -0.03800000      -0.64240000
C       -1.38590000      -0.62800000      -0.28770000
C       -1.65680000      -1.99360000      -0.82220000
C       -1.43640000      -1.81060000       0.66670000
C       -0.20510000      -2.37390000       1.30920000
F        0.83150000      -2.47570000       0.46950000
F        0.19690000      -1.61410000       2.35060000
F       -0.44330000      -3.60160000       1.80470000
H        1.14130000       1.41200000      -0.15680000
H       -0.54390000       1.79790000       0.28320000
H        0.38540000       0.61970000       1.25440000
H       -2.22460000       0.06610000      -0.20650000
H       -2.65100000      -2.24370000      -1.17240000
H       -0.84130000      -2.45240000      -1.36880000
H       -2.29470000      -1.87810000       1.32660000
