15
Properties=species:S:1:pos:R:3 gdb_130352=T pbc="F F F"
N        0.00520000       1.35260000       0.07420000
C        0.06200000      -0.00370000       0.02300000
N        1.18350000      -0.63040000      -0.00710000
C        1.21080000      -1.99440000      -0.01510000
C        2.30200000      -2.82560000       0.01140000
N        3.65010000      -2.46350000       0.13640000
C        1.72750000      -4.12240000      -0.01740000
N        0.41520000      -4.09410000      -0.06420000
O        0.07440000      -2.74340000      -0.04890000
H        0.85940000       1.86500000      -0.08050000
H       -0.85860000       1.81980000      -0.13840000
H       -0.91070000      -0.50030000       0.04550000
H        3.75660000      -1.46180000       0.02280000
H        4.24910000      -2.93940000      -0.52780000
H        2.23090000      -5.07970000      -0.00960000
