14
Properties=species:S:1:pos:R:3 gdb_19147=T pbc="F F F"
O       -1.18200000       1.46830000       0.58580000
C       -0.06570000       1.03340000       0.48200000
C        1.07880000       1.79550000      -0.12270000
C        2.36550000       1.72380000       0.61180000
O        2.15440000       0.96120000      -0.56400000
C        0.73760000       2.98750000      -0.96410000
C        1.61020000       3.41770000      -2.06100000
O        0.39470000       2.71280000      -2.32120000
H        0.22360000       0.02030000       0.83950000
H        3.05150000       2.56390000       0.51910000
H        2.43310000       1.15410000       1.53770000
H        0.09010000       3.71030000      -0.47050000
H        1.61790000       4.46570000      -2.35600000
H        2.51910000       2.85600000      -2.26410000
