16
Properties=species:S:1:pos:R:3 gdb_11533=T pbc="F F F"
O       -0.17330000       1.41190000       0.00150000
C        0.04630000       0.03030000      -0.09010000
C        0.90990000      -0.31390000      -1.32090000
C        0.21290000       0.09260000      -2.59690000
C        0.32970000      -0.69280000      -3.83010000
O       -0.84860000      -0.76750000      -3.02420000
C        0.69350000      -0.48730000       1.17580000
O        0.97100000       0.24640000       2.09390000
H        0.15820000       1.67180000       0.87570000
H       -0.91300000      -0.50720000      -0.20070000
H        1.86780000       0.21350000      -1.23730000
H        1.10920000      -1.39160000      -1.34640000
H       -0.01570000       1.15450000      -2.67640000
H        0.20580000      -0.20760000      -4.79710000
H        0.94760000      -1.59030000      -3.83860000
H        0.90230000      -1.57610000       1.21410000
