16
Properties=species:S:1:pos:R:3 gdb_31991=T pbc="F F F"
C       -0.14060000       1.24950000       0.02720000
O       -0.12630000      -0.16950000       0.22950000
C        0.65060000      -0.57820000       1.21790000
N        1.39740000       0.11190000       2.01920000
C        1.95900000      -0.86440000       2.84410000
C        1.52230000      -2.09070000       2.48460000
C        1.72170000      -3.48570000       2.95130000
O        0.57060000      -4.05470000       3.56570000
O        0.65680000      -1.90940000       1.40810000
H        0.86280000       1.61150000      -0.21200000
H       -0.81990000       1.41910000      -0.80780000
H       -0.49800000       1.76000000       0.92540000
H        2.64210000      -0.60570000       3.63800000
H        2.06880000      -4.11440000       2.11640000
H        2.50790000      -3.48460000       3.71130000
H       -0.13830000      -4.04310000       2.91390000
