20
Properties=species:S:1:pos:R:3 gdb_36512=T pbc="F F F"
N       -0.11310000      -1.18560000       0.04760000
C       -0.08510000      -0.03030000       0.02790000
C       -0.02290000       1.42950000       0.00090000
C        1.42660000       1.97930000       0.02840000
C        1.41310000       3.50510000      -0.16050000
C        2.79110000       4.10940000       0.13150000
C        3.21240000       3.83760000       1.58310000
C        2.91700000       2.41990000       1.99690000
C        2.14080000       1.58940000       1.30160000
H       -0.53480000       1.77920000      -0.90320000
H       -0.58460000       1.81860000       0.85830000
H        1.95200000       1.52300000      -0.82360000
H        1.08840000       3.75270000      -1.17760000
H        0.67340000       3.94430000       0.52330000
H        3.52880000       3.66530000      -0.54880000
H        2.78570000       5.18570000      -0.06920000
H        4.28170000       4.04530000       1.71360000
H        2.69700000       4.53110000       2.26470000
H        3.38030000       2.06960000       2.91640000
H        1.99430000       0.56820000       1.64550000
