13
Properties=species:S:1:pos:R:3 gdb_5178=T pbc="F F F"
O        0.34400000      -0.09180000      -0.15840000
C        0.51700000       1.06430000      -0.37700000
O        0.42580000       2.00700000       0.61110000
C        0.73570000       3.29840000       0.27640000
C        1.86100000       3.86750000      -0.26510000
C        1.59880000       5.26800000      -0.34670000
C        0.33890000       5.49160000       0.15060000
N       -0.18700000       4.27560000       0.52520000
H        0.76690000       1.51780000      -1.35180000
H        2.76430000       3.34880000      -0.54370000
H        2.27190000       6.02210000      -0.72330000
H       -0.22590000       6.40030000       0.27730000
H       -1.08950000       4.11100000       0.93660000
