16
Properties=species:S:1:pos:R:3 gdb_89939=T pbc="F F F"
C        0.32670000       1.57760000      -0.02200000
C        0.02850000       0.10390000       0.10560000
O        0.77390000      -0.72450000      -0.85210000
C        1.25340000      -1.59200000       0.18270000
C        2.60280000      -1.13610000       0.77450000
O        1.92820000      -0.24020000       1.69230000
C        0.63090000      -0.69060000       1.28280000
C        1.00050000      -2.99940000      -0.04900000
N        0.80830000      -4.12730000      -0.21200000
H        1.37290000       1.78100000       0.21540000
H        0.11780000       1.91240000      -1.04220000
H       -0.30700000       2.15120000       0.66220000
H       -1.04380000      -0.10330000      -0.00750000
H        3.15430000      -1.91540000       1.31190000
H        3.25230000      -0.61660000       0.06430000
H       -0.00280000      -1.00440000       2.11270000
