21
Properties=species:S:1:pos:R:3 gdb_74938=T pbc="F F F"
C       -0.01980000       1.50850000       0.04760000
C       -0.05290000       0.01380000      -0.01090000
C       -0.06550000      -0.75860000      -1.10330000
C       -0.01040000      -2.22630000      -0.77490000
C        1.43460000      -2.79720000      -0.50650000
C        1.20600000      -2.68660000       1.02530000
C        1.45560000      -1.28950000       1.65680000
C        0.00560000      -0.83170000       1.24220000
C       -0.28310000      -2.28610000       0.76260000
H        0.88550000       1.86550000       0.55620000
H       -0.04460000       1.95530000      -0.95020000
H       -0.86990000       1.90170000       0.62000000
H       -0.04600000      -0.38340000      -2.12210000
H       -0.62170000      -2.85370000      -1.42840000
H        1.53020000      -3.83920000      -0.82610000
H        2.26690000      -2.22650000      -0.92870000
H        1.50280000      -3.54850000       1.62460000
H        1.57440000      -1.35010000       2.74250000
H        2.28370000      -0.70080000       1.25000000
H       -0.58980000      -0.43270000       2.06850000
H       -1.15190000      -2.82380000       1.14160000
