25
Properties=species:S:1:pos:R:3 gdb_83945=T pbc="F F F"
C       -0.10590000       1.62330000      -0.00850000
C        0.07150000       0.11090000       0.00640000
C        1.06630000      -0.61400000      -0.95190000
C        2.39210000       0.15770000      -1.03850000
C        3.07940000       0.26520000       0.35110000
C        2.09610000       0.14840000       1.54870000
C        0.82480000      -0.62150000       1.15940000
C        1.17290000      -1.74110000       0.12580000
C        0.16040000      -2.87640000       0.00590000
H        0.83540000       2.16900000       0.10110000
H       -0.56530000       1.95020000      -0.94870000
H       -0.76600000       1.94390000       0.80580000
H       -0.91650000      -0.34490000      -0.10830000
H        0.69790000      -0.89040000      -1.94530000
H        3.07030000      -0.34620000      -1.73710000
H        2.20580000       1.15120000      -1.46230000
H        3.81290000      -0.54260000       0.43210000
H        3.65710000       1.19230000       0.42050000
H        2.59940000      -0.36090000       2.37880000
H        1.81810000       1.13910000       1.92640000
H        0.24170000      -0.90460000       2.04200000
H        2.17120000      -2.17850000       0.23840000
H       -0.86630000      -2.51520000      -0.11030000
H        0.38560000      -3.50860000      -0.86050000
H        0.18460000      -3.51490000       0.89620000
