17
Properties=species:S:1:pos:R:3 gdb_46552=T pbc="F F F"
O        0.22440000       0.07730000       0.57520000
C        0.07650000       1.21580000       0.22470000
C       -1.20860000       2.04120000       0.34070000
O       -0.93800000       3.28370000      -0.28120000
C        0.46660000       3.52220000      -0.27560000
C        0.88340000       4.65780000      -1.22320000
O        1.51340000       5.38300000      -0.14850000
C        0.99840000       4.46740000       0.83740000
C        1.11140000       2.14450000      -0.41100000
H       -2.04810000       1.55160000      -0.16260000
H       -1.46810000       2.15550000       1.40510000
H        1.58880000       4.40200000      -2.02220000
H        0.02230000       5.19190000      -1.64380000
H        0.19520000       4.91090000       1.43950000
H        1.78760000       4.08270000       1.49460000
H        2.09160000       2.04040000       0.05670000
H        1.20970000       1.86630000      -1.46810000
