18
Properties=species:S:1:pos:R:3 gdb_127404=T pbc="F F F"
C       -0.13240000       1.49210000      -0.01890000
N        0.07960000       0.05820000       0.04040000
C        0.68380000      -0.56570000      -1.17030000
C        1.35340000      -1.89600000      -0.69450000
C        1.56120000      -1.59770000       0.76660000
C        0.81510000      -0.48930000       1.08490000
N        0.93500000      -0.26620000       2.40720000
N        1.75470000      -1.19940000       2.99400000
C        2.11440000      -2.00740000       1.99450000
H        0.80260000       2.06090000      -0.16410000
H       -0.80830000       1.72570000      -0.84640000
H       -0.61030000       1.83790000       0.90270000
H       -0.08040000      -0.71650000      -1.93770000
H        1.45180000       0.10970000      -1.58070000
H        0.67800000      -2.74730000      -0.84970000
H        2.26460000      -2.09980000      -1.26440000
H        0.55130000       0.46690000       2.97650000
H        2.76780000      -2.84060000       2.21060000
