14
Properties=species:S:1:pos:R:3 gdb_44035=T pbc="F F F"
O        0.00770000       0.05120000      -0.43160000
C       -0.00220000       1.18980000      -0.09450000
C       -1.12000000       2.18130000       0.40720000
C        0.00500000       3.14290000       0.82360000
O        0.66090000       2.94900000       2.12080000
C        1.77100000       3.09300000       1.20180000
C        1.06010000       4.16660000       0.27850000
N        1.37150000       3.39860000      -0.97330000
C        1.06980000       2.32580000       0.04390000
H       -1.75240000       2.53360000      -0.41340000
H       -1.75900000       1.81840000       1.21480000
H        2.78990000       3.06260000       1.59170000
H        1.09440000       5.25750000       0.33390000
H        0.59560000       3.49090000      -1.63580000
