15
Properties=species:S:1:pos:R:3 gdb_130203=T pbc="F F F"
N        0.10530000       1.32410000       0.19230000
C        0.07790000      -0.06290000       0.08040000
N       -1.06390000      -0.73440000      -0.02610000
N       -0.67740000      -2.02500000      -0.19140000
C        0.66180000      -2.18280000      -0.17320000
C        1.20630000      -0.92600000      -0.00690000
C        2.65760000      -0.53890000       0.02340000
C        3.00270000       0.24860000       1.21340000
N        3.22940000       0.89850000       2.14220000
H        0.77220000       1.66010000       0.87690000
H       -0.81600000       1.69880000       0.38050000
H       -1.38250000      -2.73230000      -0.29870000
H        1.12770000      -3.14980000      -0.28460000
H        3.29420000      -1.42930000      -0.00120000
H        2.92660000       0.06400000      -0.85440000
