21
Properties=species:S:1:pos:R:3 gdb_6573=T pbc="F F F"
C        0.02020000       1.56500000       0.03530000
C       -0.04760000       0.06790000       0.07230000
C       -1.32760000      -0.78380000      -0.01080000
C       -0.68590000      -1.81500000       0.99210000
C       -1.36240000      -1.76590000       2.36290000
C       -0.54460000      -3.25650000       0.50640000
C        0.59590000      -0.94690000       0.97740000
N        1.10820000      -0.70920000      -0.36840000
H        1.03200000       1.90570000       0.27020000
H       -0.23850000       1.94470000      -0.96080000
H       -0.67680000       2.01160000       0.75270000
H       -2.21310000      -0.29590000       0.40590000
H       -1.57490000      -1.15660000      -1.01160000
H       -2.36740000      -2.20070000       2.32270000
H       -0.78420000      -2.32860000       3.10530000
H       -1.45430000      -0.73610000       2.72420000
H       -0.02550000      -3.32050000      -0.45590000
H        0.01760000      -3.86120000       1.22710000
H       -1.52800000      -3.72260000       0.37590000
H        1.27830000      -0.81690000       1.81260000
H        0.87060000      -1.45110000      -1.02460000
