18
Properties=species:S:1:pos:R:3 gdb_121069=T pbc="F F F"
C       -0.19890000       0.99250000      -0.29340000
O       -0.05040000      -0.38860000      -0.05280000
C        0.71460000      -0.67570000       1.08830000
C        0.83310000      -2.18930000       1.22870000
O       -0.41540000      -2.82690000       1.34180000
C       -0.76680000      -3.31610000       0.05320000
C        0.54840000      -3.37600000      -0.69070000
N        0.75080000      -3.91820000      -1.80820000
O        1.48030000      -2.74550000       0.08400000
H        0.77410000       1.48340000      -0.44760000
H       -0.79850000       1.10140000      -1.19960000
H       -0.71320000       1.49640000       0.53920000
H        1.72690000      -0.24390000       1.01500000
H        0.24190000      -0.27900000       2.00210000
H        1.43290000      -2.42990000       2.11450000
H       -1.22080000      -4.30450000       0.15360000
H       -1.46280000      -2.64150000      -0.45740000
H        1.72280000      -3.80660000      -2.09890000
