15
Properties=species:S:1:pos:R:3 gdb_72064=T pbc="F F F"
O       -0.26140000       1.30430000      -0.06820000
C       -0.01560000      -0.04080000      -0.02000000
C        0.90190000      -0.88130000      -0.89560000
N        0.08850000      -2.10270000      -0.50090000
C        0.39810000      -2.21400000       0.98510000
C       -0.34130000      -0.90980000       1.20730000
C       -1.05770000      -1.13590000      -0.11610000
C       -2.41040000      -1.18760000      -0.51220000
N       -3.52250000      -1.22100000      -0.83420000
H        0.24610000       1.74660000       0.62150000
H        0.76030000      -0.67660000      -1.95880000
H        1.96860000      -0.95240000      -0.65920000
H       -0.12040000      -3.08130000       1.39950000
H        1.46620000      -2.26960000       1.21780000
H       -0.76490000      -0.47010000       2.10210000
