19
Properties=species:S:1:pos:R:3 gdb_126839=T pbc="F F F"
C       -0.04170000       1.57160000      -0.00840000
C        0.00220000       0.04270000      -0.04870000
N        0.77070000      -0.46940000      -1.17260000
N        0.15360000      -0.69580000      -2.34340000
N        1.06010000      -1.10610000      -3.19340000
C        2.26760000      -1.12630000      -2.57210000
N        3.44940000      -1.46880000      -3.24490000
C        2.11150000      -0.70800000      -1.26420000
C        3.09790000      -0.53490000      -0.16110000
H        0.95880000       1.99850000       0.10870000
H       -0.47480000       1.95980000      -0.93360000
H       -0.65650000       1.90640000       0.83260000
H        0.43330000      -0.36320000       0.87130000
H       -1.00490000      -0.36600000      -0.15690000
H        3.23230000      -1.70100000      -4.20760000
H        3.92780000      -2.25620000      -2.82310000
H        2.98530000       0.42830000       0.34810000
H        3.02330000      -1.32020000       0.60200000
H        4.10810000      -0.57060000      -0.57750000
