11
Properties=species:S:1:pos:R:3 gdb_21693=T pbc="F F F"
N        0.02810000       1.33150000       0.06200000
C       -0.04910000      -0.00980000       0.01790000
N       -1.20780000      -0.60460000       0.00360000
O       -1.13430000      -2.01330000      -0.01140000
C        0.04210000      -2.61950000      -0.01410000
N        1.21780000      -2.09810000      -0.01530000
C        1.27530000      -0.71720000      -0.00900000
O        2.30290000      -0.07220000      -0.02850000
H        0.95030000       1.72740000      -0.02640000
H       -0.79570000       1.90270000      -0.01120000
H       -0.09560000      -3.69910000      -0.01730000
