22
Properties=species:S:1:pos:R:3 gdb_108933=T pbc="F F F"
C        0.12850000       1.48560000       0.40890000
C       -0.04180000       0.08710000      -0.21220000
C       -1.44350000      -0.44120000      -0.13110000
C       -2.26800000      -0.68850000      -1.15430000
C       -3.56980000      -1.24610000      -0.71110000
C       -4.79370000      -1.20180000      -1.54960000
N       -4.10840000      -2.48660000      -1.32210000
C       -3.56740000      -1.12800000       0.81700000
C       -2.09680000      -0.80700000       1.19100000
H        1.16520000       1.82450000       0.32080000
H       -0.51240000       2.21610000      -0.09460000
H       -0.13270000       1.48790000       1.47160000
H        0.27560000       0.11520000      -1.26070000
H        0.63720000      -0.60950000       0.30040000
H       -2.02550000      -0.54240000      -2.20300000
H       -5.76860000      -1.11690000      -1.07460000
H       -4.73130000      -0.73620000      -2.53090000
H       -3.55640000      -2.73380000      -2.14130000
H       -4.22280000      -0.30830000       1.12850000
H       -3.94050000      -2.04430000       1.27910000
H       -1.58200000      -1.66920000       1.63760000
H       -2.02830000      -0.00040000       1.92940000
