23
Properties=species:S:1:pos:R:3 gdb_111211=T pbc="F F F"
C        0.25180000       1.33660000       0.17660000
C        0.12270000      -0.17300000       0.41210000
C       -1.31310000      -0.66170000       0.30660000
C       -1.93410000      -0.91300000      -1.09970000
O       -1.03760000      -2.08270000      -1.25880000
C       -1.58960000      -2.17990000       0.11510000
C       -2.99310000      -1.87680000      -0.48320000
C       -4.19890000      -1.42560000       0.32940000
C       -5.31220000      -0.85450000      -0.55840000
H        1.29110000       1.66430000       0.27580000
H       -0.08770000       1.61270000      -0.82770000
H       -0.34650000       1.90770000       0.89580000
H        0.73550000      -0.72290000      -0.30730000
H        0.50520000      -0.41800000       1.41180000
H       -1.96290000      -0.14920000       1.02210000
H       -2.02300000      -0.23720000      -1.95210000
H       -1.26320000      -3.02530000       0.72410000
H       -3.27200000      -2.64570000      -1.21020000
H       -4.58360000      -2.29290000       0.88160000
H       -3.92040000      -0.68520000       1.08590000
H       -6.19020000      -0.58080000       0.03430000
H       -4.97510000       0.04220000      -1.08930000
H       -5.63070000      -1.58330000      -1.31140000
