14
Properties=species:S:1:pos:R:3 gdb_17164=T pbc="F F F"
O        0.03230000      -0.04350000      -0.02300000
C        0.10130000       1.15500000      -0.13760000
C        1.37360000       1.91770000      -0.07710000
N        2.74190000       1.33020000      -0.03290000
C        2.98500000       2.80600000       0.05140000
C        1.84190000       3.11670000      -0.96930000
N        1.12750000       4.12390000      -0.12310000
C        1.68670000       3.15000000       0.86490000
H       -0.79900000       1.79120000      -0.27640000
H        2.90670000       0.87610000       0.86830000
H        3.98010000       3.24960000       0.11930000
H        1.88390000       3.14690000      -2.05770000
H        1.65460000       5.00050000      -0.09550000
H        1.53410000       3.22210000       1.94380000
