19
Properties=species:S:1:pos:R:3 gdb_110956=T pbc="F F F"
C        0.03160000       1.54400000      -0.17410000
C       -0.03260000       0.06210000       0.21300000
C       -1.44610000      -0.50040000       0.14700000
C       -2.01560000      -0.88830000      -1.24740000
O       -1.11660000      -2.07160000      -1.26070000
C       -1.61510000      -2.05580000       0.15650000
C       -1.11300000      -3.08730000       1.11030000
C       -2.99640000      -1.84230000      -0.52400000
O       -4.10260000      -2.27170000      -0.56020000
H        1.05350000       1.92580000      -0.09200000
H       -0.29920000       1.70010000      -1.20630000
H       -0.60570000       2.15510000       0.47470000
H        0.61610000      -0.52830000      -0.44010000
H        0.34480000      -0.06370000       1.23590000
H       -2.14030000       0.04600000       0.79740000
H       -2.09740000      -0.30970000      -2.16470000
H       -0.04000000      -2.97190000       1.29030000
H       -1.63710000      -2.99270000       2.06640000
H       -1.29660000      -4.09070000       0.71620000
