22
Properties=species:S:1:pos:R:3 gdb_83879=T pbc="F F F"
C        0.41530000       1.42410000      -0.32030000
C        0.31030000      -0.10360000      -0.25600000
C        1.10980000      -0.75120000      -1.39500000
O        1.17340000      -2.16000000      -1.26280000
C        1.97190000      -2.56220000      -0.16210000
C        1.62490000      -1.87590000       1.14760000
C        0.79070000      -0.63090000       1.10010000
N        0.28390000      -1.86170000       1.71010000
C       -0.79550000      -2.62790000       1.09920000
H        1.44980000       1.75450000      -0.17220000
H        0.07870000       1.80410000      -1.29060000
H       -0.19860000       1.89290000       0.45480000
H       -0.74300000      -0.38010000      -0.39150000
H        0.63860000      -0.55730000      -2.36350000
H        2.12840000      -0.32580000      -1.42270000
H        1.84890000      -3.64810000      -0.08450000
H        3.03650000      -2.36290000      -0.37590000
H        2.42070000      -1.95840000       1.88850000
H        0.98920000       0.15000000       1.83370000
H       -0.74730000      -2.71410000       0.00710000
H       -0.78060000      -3.63710000       1.52400000
H       -1.75050000      -2.16940000       1.37680000
