22
Properties=species:S:1:pos:R:3 gdb_119373=T pbc="F F F"
C       -0.10120000       1.55340000      -0.04200000
C        0.10740000       0.05250000       0.02600000
N        1.28860000      -0.56860000      -0.76170000
C        2.16490000      -0.12140000       0.42050000
C        0.90920000      -0.66650000       1.15080000
C        0.59970000      -0.73390000       2.62860000
C        1.61080000      -1.55450000       3.42180000
O        1.21310000      -1.53240000       4.78400000
C        1.01730000      -1.80780000       0.10590000
H       -0.32940000       1.84780000      -1.07180000
H       -0.95740000       1.83400000       0.58090000
H        0.75750000       2.13990000       0.29170000
H       -0.82980000      -0.44940000      -0.24520000
H        3.09280000      -0.69510000       0.50340000
H        2.37770000       0.94800000       0.44820000
H        0.56760000       0.27920000       3.04850000
H       -0.39700000      -1.16740000       2.77850000
H        1.64180000      -2.58470000       3.03180000
H        2.61890000      -1.12770000       3.29360000
H        1.84600000      -2.04900000       5.29130000
H        0.10380000      -2.34410000      -0.16900000
H        1.87350000      -2.48560000       0.16620000
