14
Properties=species:S:1:pos:R:3 gdb_57581=T pbc="F F F"
C        0.08310000       1.57160000       0.17540000
C        0.02930000       0.04190000       0.09200000
O        0.59050000      -0.60070000       1.22920000
C       -1.44330000      -0.45660000       0.08320000
O       -2.36470000       0.19360000      -0.31620000
C        0.65240000      -0.45020000      -1.14180000
C        1.17330000      -0.87390000      -2.14720000
C        1.76660000      -1.34620000      -3.28260000
N        2.27480000      -1.74720000      -4.24700000
H        1.11510000       1.92470000       0.10290000
H       -0.50350000       2.01190000      -0.63310000
H       -0.34030000       1.88730000       1.13180000
H        1.53730000      -0.42130000       1.24740000
H       -1.54330000      -1.48160000       0.49370000
