19
Properties=species:S:1:pos:R:3 gdb_40682=T pbc="F F F"
C       -0.04930000       1.53470000      -0.01510000
O        1.10940000       0.70870000      -0.14580000
C       -0.16720000       0.07090000      -0.00920000
C       -0.40190000      -0.71240000       1.23500000
C       -1.59540000      -1.66530000       1.32060000
C       -0.20680000      -2.20010000       1.24480000
C        0.46700000      -3.10510000       0.21770000
C        1.13050000      -3.73920000       1.45980000
O        0.40620000      -2.85730000       2.35150000
H       -0.13120000       2.07930000       0.92500000
H       -0.32600000       2.10140000      -0.90350000
H       -0.51810000      -0.40620000      -0.92700000
H       -0.12600000      -0.20770000       2.15670000
H       -2.10690000      -1.73500000       2.27430000
H       -2.23770000      -1.76410000       0.44990000
H       -0.20600000      -3.76330000      -0.33530000
H        1.14500000      -2.60610000      -0.47670000
H        0.88950000      -4.79070000       1.64930000
H        2.21340000      -3.59410000       1.54090000
