17
Properties=species:S:1:pos:R:3 gdb_55543=T pbc="F F F"
C       -0.12040000       1.43640000       0.17240000
C        0.10030000      -0.04820000      -0.07860000
O        1.11260000      -0.50410000      -0.54260000
N       -1.00950000      -0.82200000       0.28620000
C       -1.12490000      -2.21390000       0.25920000
O       -0.23980000      -2.98820000       0.00990000
N       -2.44210000      -2.58280000       0.64000000
C       -3.47460000      -2.67320000      -0.40640000
C       -2.90610000      -3.89530000       0.22830000
H        0.76270000       1.97970000      -0.16090000
H       -0.99840000       1.80150000      -0.37110000
H       -0.28410000       1.62890000       1.23820000
H       -1.81580000      -0.33840000       0.65160000
H       -4.45760000      -2.30680000      -0.12580000
H       -3.17190000      -2.45400000      -1.42730000
H       -2.20840000      -4.49120000      -0.35190000
H       -3.48140000      -4.43370000       0.97470000
