14
Properties=species:S:1:pos:R:3 gdb_132922=T pbc="F F F"
N       -0.03740000       1.36020000      -0.11410000
C       -0.01650000      -0.00250000      -0.06400000
N       -1.17090000      -0.66560000      -0.07120000
C       -1.09920000      -2.00750000      -0.06810000
N       -2.29250000      -2.67780000      -0.14120000
H       -3.11460000      -2.15330000       0.10660000
H       -2.26690000      -3.64730000       0.12790000
N        0.01010000      -2.75770000      -0.02990000
C        1.16180000      -2.07400000      -0.01230000
C        1.20160000      -0.70320000      -0.03520000
F        2.35790000      -0.01110000      -0.00930000
H        0.79980000       1.85350000       0.14610000
H       -0.91940000       1.80130000       0.08940000
H        2.08720000      -2.64410000       0.02480000
