19
Properties=species:S:1:pos:R:3 gdb_69968=T pbc="F F F"
C        0.06860000       1.52590000      -0.04430000
C        0.04010000       0.01650000      -0.00670000
C       -1.31110000      -0.73520000       0.02100000
O       -0.88540000      -1.54020000       1.15030000
C        0.36750000      -0.81280000       1.25350000
C        1.59730000      -1.44000000       0.56850000
C        1.16680000      -2.18720000      -0.67470000
C        1.23770000      -0.69020000      -0.71580000
O        2.09840000      -0.01320000      -1.56330000
H        1.06500000       1.90610000       0.19990000
H       -0.18280000       1.90030000      -1.04320000
H       -0.64860000       1.94870000       0.66670000
H       -2.16640000      -0.10160000       0.28950000
H       -1.57480000      -1.34480000      -0.85180000
H        0.52280000      -0.37500000       2.24280000
H        2.55970000      -1.61410000       1.03380000
H        1.98770000      -2.66910000      -1.19690000
H        0.23230000      -2.73720000      -0.68070000
H        1.86170000      -0.22520000      -2.47280000
