17
Properties=species:S:1:pos:R:3 gdb_79515=T pbc="F F F"
O        0.05930000       1.40480000       0.11750000
C       -0.00810000      -0.00460000       0.04450000
C       -1.41140000      -0.51830000      -0.21230000
C       -1.30590000      -1.97200000      -0.78220000
C       -2.58010000      -1.71500000      -1.62140000
C       -1.74450000      -0.41970000      -1.73980000
C       -0.44390000      -1.29920000      -1.91420000
C        0.65580000      -0.52640000      -1.24970000
O        1.76530000      -0.25060000      -1.63210000
H        0.95780000       1.65000000      -0.13880000
H        0.44760000      -0.47550000       0.93140000
H       -2.19640000      -0.29380000       0.50980000
H       -1.03140000      -2.87170000      -0.22890000
H       -2.69940000      -2.31180000      -2.52910000
H       -3.52180000      -1.63970000      -1.06980000
H       -1.97220000       0.48630000      -2.30090000
H       -0.24920000      -1.81400000      -2.85330000
