15
Properties=species:S:1:pos:R:3 gdb_19944=T pbc="F F F"
N        0.15600000       1.23910000      -0.15440000
C        0.08690000       0.00380000       0.04030000
O        1.05840000      -0.91580000       0.37470000
C        0.07770000      -2.00000000       0.42580000
C       -1.04420000      -1.01450000       0.02310000
C       -2.16670000      -0.78430000       0.99700000
C       -3.45460000      -0.23050000       0.56880000
O       -3.31250000      -1.62570000       0.84910000
H        1.11140000       1.58320000      -0.04230000
H        0.31990000      -2.78360000      -0.29460000
H        0.00730000      -2.41540000       1.43440000
H       -1.44920000      -1.19070000      -0.97590000
H       -1.85900000      -0.62400000       2.03160000
H       -4.05970000       0.33150000       1.27770000
H       -3.60580000       0.02480000      -0.47870000
