19
Properties=species:S:1:pos:R:3 gdb_92061=T pbc="F F F"
C        0.12460000       1.58610000       0.01080000
C        0.12690000       0.06370000      -0.04420000
O        1.06060000      -0.34680000      -1.04150000
C        1.10960000      -1.73850000      -1.17220000
C        2.46240000      -2.36760000      -1.05380000
C        1.47950000      -2.47160000       0.09400000
C        1.60800000      -1.56350000       1.31250000
C        0.47240000      -0.54640000       1.32610000
O       -0.13090000      -0.22850000       2.32300000
H        1.13150000       1.96030000       0.21860000
H       -0.20640000       1.99850000      -0.94510000
H       -0.54620000       1.91960000       0.80470000
H       -0.88350000      -0.29360000      -0.30560000
H        0.37350000      -2.15880000      -1.85710000
H        2.66220000      -3.25880000      -1.63790000
H        3.30570000      -1.69520000      -0.93770000
H        1.01920000      -3.43740000       0.27290000
H        1.59360000      -2.11540000       2.25420000
H        2.54990000      -1.00160000       1.27750000
