20
Properties=species:S:1:pos:R:3 gdb_65110=T pbc="F F F"
O        0.82770000      -0.23370000       1.50760000
C        0.16880000      -0.27230000       0.26390000
C        0.57880000       0.73750000      -0.78030000
C        1.01740000      -0.71070000      -0.88700000
C       -1.25150000      -0.72090000       0.34630000
C       -1.64930000      -2.14330000       0.35050000
N       -1.99070000      -1.33020000      -0.83510000
C       -3.20490000      -0.53430000      -0.42730000
C       -2.44350000       0.16700000       0.72600000
H        0.47610000       0.51370000       2.00380000
H       -0.17100000       1.09180000      -1.47960000
H        1.32740000       1.46640000      -0.49020000
H        2.05200000      -0.93910000      -0.66000000
H        0.55010000      -1.32110000      -1.65090000
H       -0.87320000      -2.87560000       0.15330000
H       -2.45320000      -2.48830000       0.99850000
H       -3.50240000       0.13610000      -1.23570000
H       -4.05970000      -1.16090000      -0.15250000
H       -2.83280000       0.05970000       1.74260000
H       -2.26310000       1.22560000       0.52560000
