14
Properties=species:S:1:pos:R:3 gdb_44439=T pbc="F F F"
N       -0.07640000       1.27240000      -0.24520000
C       -0.02010000       0.04200000       0.02080000
O        1.13740000      -0.64320000       0.28510000
C        0.96160000      -2.01450000       0.55700000
C       -0.13490000      -2.76380000      -0.17520000
O       -1.04500000      -1.91920000      -0.83760000
C       -1.23590000      -0.85220000       0.08470000
O       -1.27310000      -1.45120000       1.37510000
C       -0.28680000      -2.45210000       1.29850000
H        0.85560000       1.69220000      -0.23790000
H        1.90980000      -2.49780000       0.75690000
H       -0.01620000      -3.73300000      -0.63950000
H       -2.16200000      -0.32190000      -0.12300000
H       -0.30120000      -3.14810000       2.12570000
