17
Properties=species:S:1:pos:R:3 gdb_3526=T pbc="F F F"
C       -0.15510000       1.60520000      -0.02280000
C       -0.03150000       0.08910000       0.00690000
C        1.18080000      -0.59560000      -0.66600000
C        2.13970000      -0.29470000       0.54170000
C        2.58390000      -1.76670000       0.65040000
C        1.08990000      -1.84070000       0.28230000
C        0.72960000      -0.59650000       1.16540000
H        0.79630000       2.09360000       0.21210000
H       -0.47400000       1.95510000      -1.01110000
H       -0.89700000       1.95420000       0.70430000
H       -0.99390000      -0.38370000      -0.23040000
H        1.46680000      -0.61440000      -1.72020000
H        2.73450000       0.60760000       0.68870000
H        3.29610000      -2.12390000      -0.10090000
H        2.86560000      -2.12480000       1.64620000
H        0.45580000      -2.71540000       0.12560000
H        0.49310000      -0.61650000       2.23180000
