21
Properties=species:S:1:pos:R:3 gdb_70929=T pbc="F F F"
C        0.06840000       1.53380000      -0.09280000
C        0.03240000       0.03280000       0.00040000
C        0.58640000      -0.99030000      -1.08610000
C       -0.01500000      -1.82640000       0.06880000
C        0.71390000      -0.86500000       1.06550000
O       -0.37730000      -3.13990000       0.32200000
C       -1.62700000      -3.05060000       1.06190000
C       -2.02630000      -1.53260000       1.22250000
C       -1.23210000      -0.91570000       0.06790000
H        1.09710000       1.89780000      -0.19010000
H       -0.49810000       1.89080000      -0.95960000
H       -0.36550000       1.99110000       0.80300000
H        0.05740000      -1.01650000      -2.04250000
H        1.67160000      -1.00370000      -1.21620000
H        1.80670000      -0.88560000       1.05400000
H        0.33420000      -0.80440000       2.08670000
H       -2.38580000      -3.60430000       0.49750000
H       -1.49570000      -3.54060000       2.03220000
H       -3.10670000      -1.40220000       1.12680000
H       -1.73700000      -1.16440000       2.20870000
H       -1.80660000      -0.93540000      -0.86460000
