19
Properties=species:S:1:pos:R:3 gdb_78745=T pbc="F F F"
C        0.02910000       1.42860000      -0.00290000
C       -0.00750000      -0.08030000       0.01860000
C       -1.32780000      -0.78090000      -0.30300000
O       -1.27690000      -2.04640000       0.36360000
C        0.07440000      -2.24890000       0.74500000
C        0.67760000      -0.86710000       1.09420000
C        1.28140000      -0.82850000      -0.30850000
C        1.02560000      -2.31640000      -0.50050000
O        2.22880000      -3.01610000      -0.24740000
H        1.00990000       1.80610000       0.30140000
H       -0.17650000       1.81670000      -1.00700000
H       -0.71970000       1.85020000       0.67700000
H       -2.18130000      -0.21270000       0.08830000
H       -1.48020000      -0.92310000      -1.38220000
H        0.13550000      -3.07710000       1.45090000
H        1.03250000      -0.48640000       2.04230000
H        2.16320000      -0.30290000      -0.65690000
H        0.55490000      -2.65180000      -1.43660000
H        2.02820000      -3.95790000      -0.25890000
