21
Properties=species:S:1:pos:R:3 gdb_83257=T pbc="F F F"
C       -0.40560000       1.49700000       0.01150000
C       -0.06410000       0.02590000       0.09520000
C        1.28660000      -0.51230000      -0.30250000
O        2.31680000       0.44170000      -0.39310000
C        2.86280000       0.64760000       0.90740000
C        1.79320000       0.22600000       1.94460000
O        1.09590000       1.30940000       2.54860000
C        0.83950000      -0.64720000       1.13130000
C        0.40030000      -1.95880000       1.74170000
H        0.48310000       2.12150000       0.09770000
H       -0.87560000       1.70900000      -0.95550000
H       -1.10080000       1.79050000       0.80240000
H       -0.89010000      -0.62700000      -0.18320000
H        1.40140000      -1.35590000      -0.97850000
H        3.77140000       0.03750000       1.02990000
H        3.13570000       1.70390000       1.00840000
H        2.26210000      -0.38760000       2.72820000
H        1.71380000       1.78540000       3.11250000
H       -0.23730000      -1.79070000       2.61710000
H       -0.17290000      -2.55660000       1.02630000
H        1.25890000      -2.56030000       2.06360000
