19
Properties=species:S:1:pos:R:3 gdb_70116=T pbc="F F F"
C       -0.03380000       1.52510000       0.09290000
C        0.04130000       0.01680000       0.04900000
C       -0.80150000      -0.79400000       1.00840000
C        0.71060000      -0.80890000       1.14270000
C        1.38350000      -1.93230000       0.43700000
C        1.19770000      -1.87510000      -0.88470000
C        0.41820000      -0.63750000      -1.29670000
C       -0.79550000      -0.96030000      -2.15290000
O       -0.94100000      -0.60420000      -3.29410000
H        0.90250000       1.97850000      -0.25110000
H       -0.83950000       1.90230000      -0.54750000
H       -0.22550000       1.88190000       1.10960000
H       -1.36450000      -0.22520000       1.74180000
H       -1.28180000      -1.71130000       0.68660000
H        1.16770000      -0.34780000       2.01160000
H        1.93580000      -2.70830000       0.95530000
H        1.54640000      -2.60240000      -1.60840000
H        1.04060000       0.03830000      -1.89750000
H       -1.57220000      -1.56870000      -1.63850000
