14
Properties=species:S:1:pos:R:3 gdb_12720=T pbc="F F F"
C       -0.19180000       1.48370000       0.03650000
C        0.04960000       0.00460000       0.03260000
O       -1.15090000      -0.80390000       0.13000000
C       -0.56320000      -1.65000000       1.15240000
C        0.77310000      -0.91450000       1.04520000
O        1.61230000      -1.44980000      -0.01800000
C        1.03170000      -0.63630000      -0.97720000
O        1.29240000      -0.57570000      -2.13220000
H        0.75450000       2.03270000       0.03940000
H       -0.74420000       1.76250000      -0.86640000
H       -0.78190000       1.77710000       0.90860000
H       -1.07790000      -1.51930000       2.11100000
H       -0.54280000      -2.70730000       0.87250000
H        1.35190000      -0.62230000       1.91770000
