19
Properties=species:S:1:pos:R:3 gdb_95850=T pbc="F F F"
C        0.02210000       1.54680000       0.05910000
C        0.02900000       0.03240000      -0.05980000
C        0.78740000      -0.49040000      -1.28490000
C        0.91720000      -2.01110000      -1.19150000
O        1.48690000      -2.38310000       0.06300000
C        0.76210000      -1.87500000       1.15660000
O        0.65400000      -0.47350000       1.13020000
C       -0.56130000      -2.52730000       1.28630000
C       -1.62460000      -3.07130000       1.42080000
H        1.04510000       1.93080000       0.11610000
H       -0.47060000       1.99410000      -0.80960000
H       -0.51220000       1.85630000       0.96130000
H       -1.00690000      -0.34020000      -0.09400000
H        0.26450000      -0.20910000      -2.20600000
H        1.78580000      -0.03880000      -1.30700000
H       -0.06550000      -2.49080000      -1.31200000
H        1.58910000      -2.41140000      -1.95430000
H        1.36570000      -2.10570000       2.03930000
H       -2.56250000      -3.55460000       1.54540000
