20
Properties=species:S:1:pos:R:3 gdb_73985=T pbc="F F F"
C       -0.14220000       1.35180000      -0.43660000
C       -0.01590000       0.04950000       0.28920000
C       -1.06040000      -0.78190000       0.54390000
C       -1.71940000      -1.32480000      -0.73430000
N       -0.75200000      -2.50270000      -0.61430000
C        0.63310000      -2.18130000       0.03470000
C        1.25670000      -0.78460000       0.18680000
C       -0.58900000      -2.21580000       0.84230000
C       -1.02270000      -3.13710000       1.93800000
H        0.34300000       1.32270000      -1.42230000
H       -1.19120000       1.63290000      -0.56790000
H        0.34530000       2.16280000       0.12080000
H       -2.72400000      -1.75130000      -0.65130000
H       -1.64400000      -0.71510000      -1.63990000
H        1.26560000      -3.05690000      -0.08510000
H        1.83370000      -0.43570000      -0.67800000
H        1.95040000      -0.79520000       1.04050000
H       -0.59650000      -2.82910000       2.89920000
H       -2.11300000      -3.14020000       2.04360000
H       -0.69650000      -4.15990000       1.72720000
