16
Properties=species:S:1:pos:R:3 gdb_54901=T pbc="F F F"
N       -0.07400000       1.37260000      -0.26990000
C        0.07290000       0.06430000       0.09020000
O        1.14250000      -0.41240000       0.40730000
C       -1.24400000      -0.73550000       0.12270000
C       -1.03150000      -2.25600000       0.06240000
C       -1.75860000      -2.82640000       1.28860000
O       -1.91420000      -3.99580000       1.54530000
C       -2.23260000      -1.66490000       2.08410000
C       -1.96180000      -0.52320000       1.44650000
H        0.75640000       1.93870000      -0.34020000
H       -0.92640000       1.72490000      -0.66870000
H       -1.88370000      -0.37920000      -0.69600000
H       -1.40810000      -2.71700000      -0.85330000
H        0.03480000      -2.48570000       0.14580000
H       -2.73860000      -1.77710000       3.03430000
H       -2.20420000       0.47280000       1.80130000
