19
Properties=species:S:1:pos:R:3 gdb_36442=T pbc="F F F"
N        0.02360000      -1.15910000      -0.27510000
C       -0.01010000      -0.01500000      -0.11970000
C       -0.05250000       1.43600000       0.10490000
N        1.27330000       2.00850000       0.09910000
C        2.16750000       1.74970000       1.25360000
C        2.59580000       3.22930000       1.23220000
C        3.56400000       3.64420000       0.08210000
C        2.34810000       4.10840000      -0.78250000
C        1.39940000       3.48200000       0.26070000
H       -0.64120000       1.89010000      -0.70120000
H       -0.60930000       1.61160000       1.04720000
H        1.61620000       1.49480000       2.17270000
H        2.92990000       0.98370000       1.07540000
H        2.71580000       3.73600000       2.18790000
H        4.26780000       4.43730000       0.34230000
H        4.12850000       2.80810000      -0.33790000
H        2.25880000       5.19820000      -0.82000000
H        2.27010000       3.70630000      -1.79470000
H        0.47520000       4.00050000       0.53890000
