18
Properties=species:S:1:pos:R:3 gdb_94606=T pbc="F F F"
N       -1.04380000       1.62460000       0.11200000
H       -0.52130000       1.50840000      -0.75590000
H       -0.47950000       2.26110000       0.69930000
H       -1.91770000       2.08550000      -0.13340000
C       -1.37090000       0.23700000       0.69820000
C       -0.16900000      -0.36490000       1.25680000
O        0.48080000       0.33890000       2.48700000
C        1.36790000       1.31330000       2.30350000
C        1.93590000       1.78330000       1.17810000
C       -0.24850000      -0.37500000       5.02380000
O        0.30700000       0.54910000       5.46210000
O       -0.81920000      -1.31180000       4.63870000
H       -2.12010000       0.44130000       1.46950000
H       -0.41770000      -1.32830000       1.70170000
H        0.65990000      -0.50430000       0.55460000
H        1.63460000       1.76520000       3.26060000
H        1.79340000       1.34480000       0.19850000
H        2.65640000       2.58690000       1.25620000
