23
Properties=species:S:1:pos:R:3 gdb_13456=T pbc="F F F"
C        1.72090000       0.61280000       1.05850000
C        0.93500000      -0.56270000       0.47300000
C       -0.33570000      -0.87770000       1.26680000
N       -0.99840000      -2.05400000       0.71630000
C       -2.36090000      -2.40860000       1.12400000
C       -3.15960000      -1.61800000       2.13940000
C       -2.08250000      -1.92600000      -0.26590000
C       -2.58690000      -0.60330000      -0.80460000
H        2.62360000       0.81720000       0.47490000
H        1.12020000       1.52940000       1.07160000
H        2.03170000       0.40860000       2.08940000
H        0.66220000      -0.34630000      -0.56770000
H        1.55760000      -1.46380000       0.44500000
H       -0.06540000      -1.11100000       2.30510000
H       -0.96710000       0.02400000       1.30670000
H       -2.48510000      -3.48530000       1.25040000
H       -3.10150000      -0.53790000       1.99440000
H       -4.21570000      -1.90410000       2.08710000
H       -2.81250000      -1.83530000       3.15590000
H       -2.02220000      -2.68930000      -1.04280000
H       -2.72000000       0.16150000      -0.03760000
H       -1.89960000      -0.20290000      -1.55840000
H       -3.55640000      -0.75140000      -1.29280000
