19
Properties=species:S:1:pos:R:3 gdb_32832=T pbc="F F F"
C        0.13950000       1.55710000      -0.12310000
C        0.01020000       0.07240000       0.01660000
C       -0.28270000      -0.82670000      -0.95900000
O       -0.31250000      -2.09630000      -0.46350000
C       -0.03020000      -2.01340000       0.87060000
C       -0.01580000      -3.29080000       1.63370000
C       -1.39390000      -3.95310000       1.72190000
O       -1.23770000      -5.15590000       2.45770000
C        0.17270000      -0.71250000       1.21230000
H        1.14050000       1.90200000       0.16050000
H       -0.04150000       1.87440000      -1.15400000
H       -0.57500000       2.08560000       0.51830000
H       -0.48610000      -0.72930000      -2.01320000
H        0.67690000      -4.00640000       1.17420000
H        0.34890000      -3.09410000       2.64610000
H       -2.09910000      -3.26520000       2.21420000
H       -1.77170000      -4.14470000       0.70680000
H       -2.09150000      -5.59590000       2.49940000
H        0.41430000      -0.34680000       2.19910000
