20
Properties=species:S:1:pos:R:3 gdb_107071=T pbc="F F F"
C       -0.03040000       1.45450000      -0.04300000
C       -0.11890000      -0.07020000       0.11310000
C        0.71620000      -0.57730000       1.24330000
C        2.16450000      -0.91890000       1.27350000
C        1.12420000      -1.95480000       1.72660000
C        0.57540000      -1.50710000       3.03620000
O        0.30790000      -0.19990000       2.59490000
N        0.34630000      -2.04840000       4.13860000
C       -0.27180000      -1.26350000       5.19770000
H        0.99540000       1.76990000      -0.25740000
H       -0.67020000       1.79810000      -0.86070000
H       -0.35180000       1.95520000       0.87480000
H       -1.15990000      -0.37000000       0.28100000
H        0.21240000      -0.56600000      -0.80670000
H        2.61930000      -1.14690000       0.31380000
H        2.82230000      -0.45290000       2.00040000
H        1.02920000      -2.93470000       1.28190000
H       -1.15750000      -1.79360000       5.56430000
H        0.42490000      -1.18720000       6.04010000
H       -0.56490000      -0.25210000       4.89280000
