21
Properties=species:S:1:pos:R:3 gdb_107839=T pbc="F F F"
C       -0.11740000       1.51500000       0.05670000
C        0.08570000      -0.00500000       0.00520000
C        0.73640000      -0.49320000      -1.27010000
C        0.04830000      -0.38930000      -2.66590000
C        0.96530000      -1.56080000      -3.04650000
C        2.43440000      -1.25280000      -2.54670000
C        2.17520000      -0.04510000      -1.62950000
O        2.35840000      -2.35430000      -1.58890000
C        0.95830000      -2.06020000      -1.58980000
H        0.83730000       2.04690000      -0.01000000
H       -0.74790000       1.85910000      -0.77020000
H       -0.60120000       1.81530000       0.99120000
H        0.69960000      -0.32140000       0.85920000
H       -0.88540000      -0.50320000       0.12700000
H       -0.99810000      -0.71060000      -2.64140000
H        0.12790000       0.55790000      -3.20750000
H        0.83770000      -2.20690000      -3.91310000
H        3.31530000      -1.28640000      -3.18620000
H        2.20430000       0.92550000      -2.13240000
H        2.87230000      -0.04740000      -0.78810000
H        0.30850000      -2.81290000      -1.14410000
