20
Properties=species:S:1:pos:R:3 gdb_9554=T pbc="F F F"
C       -0.02850000       1.56290000       0.08340000
C       -0.07770000       0.03770000      -0.06100000
C        0.69660000      -0.49220000      -1.27320000
O        0.20780000       0.04270000      -2.48960000
C        2.25100000      -0.49650000      -1.08410000
C        2.16470000      -1.99420000      -0.68370000
C        0.75620000      -2.03660000      -1.33530000
O       -0.29500000      -2.70280000      -0.67710000
H        0.99950000       1.93690000       0.14650000
H       -0.52130000       2.06860000      -0.75540000
H       -0.55050000       1.88210000       0.99020000
H        0.31970000      -0.42950000       0.84670000
H       -1.11580000      -0.29730000      -0.14930000
H        0.22390000       1.00320000      -2.42720000
H        2.75060000      -0.34960000      -2.04440000
H        2.67320000       0.19370000      -0.35020000
H        2.92550000      -2.67160000      -1.07750000
H        2.09290000      -2.12900000       0.39880000
H        0.82320000      -2.33100000      -2.39110000
H       -0.21420000      -3.64520000      -0.85070000
