16
Properties=species:S:1:pos:R:3 gdb_68154=T pbc="F F F"
C        0.01700000       1.54140000       0.04030000
C        0.02970000       0.04190000      -0.01590000
C        0.61550000      -0.81110000      -1.18710000
C        0.72490000      -1.87120000      -0.05760000
N        0.89130000      -0.75730000       0.96400000
C       -0.74490000      -2.17900000       0.22660000
O       -1.33220000      -3.21160000       0.35680000
C       -1.28100000      -0.70480000       0.26060000
O       -2.39080000      -0.29100000       0.42640000
H        1.00110000       1.95890000      -0.19470000
H       -0.70800000       1.93990000      -0.67560000
H       -0.27830000       1.88020000       1.03770000
H       -0.00230000      -1.01960000      -2.06830000
H        1.59880000      -0.44040000      -1.49290000
H        1.42690000      -2.70160000      -0.05860000
H        1.84660000      -0.40480000       0.87440000
