18
Properties=species:S:1:pos:R:3 gdb_84862=T pbc="F F F"
C       -0.04430000       1.51570000       0.13820000
N        0.01940000       0.06540000      -0.04690000
C       -1.21950000      -0.58720000      -0.12420000
C       -1.51630000      -1.71200000      -0.77520000
C       -0.52950000      -2.50120000      -1.59880000
C        0.68570000      -2.87020000      -0.78620000
C        1.40960000      -2.00820000      -0.06950000
C        1.27570000      -0.53340000       0.03340000
O        2.27980000       0.13790000       0.22240000
H        0.96310000       1.87690000       0.33170000
H       -0.44480000       2.00150000      -0.75760000
H       -0.69370000       1.75900000       0.98680000
H       -2.00210000      -0.05840000       0.41410000
H       -2.52870000      -2.08950000      -0.68320000
H       -1.00540000      -3.40230000      -1.99250000
H       -0.21670000      -1.91180000      -2.47420000
H        0.99490000      -3.91300000      -0.79610000
H        2.30450000      -2.35150000       0.43950000
