18
Properties=species:S:1:pos:R:3 gdb_67947=T pbc="F F F"
C        0.06030000       1.55890000      -0.09100000
C       -0.06640000       0.04120000      -0.03010000
C       -1.41130000      -0.51890000       0.53210000
C       -0.52150000      -1.29070000       1.52350000
O       -0.67320000      -2.19150000       2.30070000
N        0.64340000      -0.62270000       1.11470000
C        1.81240000      -1.37980000       0.65360000
C        1.58750000      -1.41840000      -0.84830000
C        0.54930000      -0.66730000      -1.21690000
H        1.09880000       1.85900000      -0.25990000
H       -0.54510000       1.95990000      -0.91140000
H       -0.28390000       2.01260000       0.84300000
H       -2.08540000       0.21920000       0.97290000
H       -1.97320000      -1.17430000      -0.13590000
H        2.75780000      -0.88750000       0.91640000
H        1.81350000      -2.36910000       1.12380000
H        2.23020000      -1.98110000      -1.51550000
H        0.20970000      -0.51120000      -2.23410000
