13
Properties=species:S:1:pos:R:3 gdb_27612=T pbc="F F F"
O        0.10680000       1.29880000       0.08740000
C        0.07010000      -0.03910000       0.05420000
N        0.07480000      -0.60870000      -1.15130000
C        0.03750000      -1.95070000      -1.17030000
C       -0.00370000      -2.69550000       0.01230000
C       -0.00380000      -1.97150000       1.19830000
N        0.03270000      -0.64100000       1.24330000
C        0.04130000      -2.59850000      -2.44370000
C        0.04340000      -3.17270000      -3.50070000
H        0.13080000       1.59220000      -0.83390000
H       -0.03370000      -3.77610000      -0.00350000
H       -0.03460000      -2.48210000       2.15810000
H        0.04560000      -3.66850000      -4.44030000
