18
Properties=species:S:1:pos:R:3 gdb_115245=T pbc="F F F"
O       -0.04150000       1.45010000      -0.06820000
C        0.04690000       0.04550000      -0.10780000
C       -1.33840000      -0.58870000       0.03840000
C       -1.31480000      -2.10900000       0.00800000
O       -2.59880000      -2.69910000       0.28890000
C       -3.55340000      -2.06220000       1.00920000
O       -4.57410000      -2.63510000       1.27360000
C       -3.31190000      -0.60400000       1.40730000
N       -1.94310000      -0.11000000       1.28700000
H       -0.69600000       1.64690000       0.61690000
H        0.49580000      -0.23340000      -1.06710000
H        0.70850000      -0.34310000       0.68860000
H       -1.96850000      -0.21870000      -0.78140000
H       -1.02390000      -2.49530000      -0.97380000
H       -0.59980000      -2.49310000       0.74870000
H       -3.97140000      -0.00080000       0.76960000
H       -3.67440000      -0.48080000       2.43020000
H       -1.39170000      -0.45840000       2.06910000
