12
Properties=species:S:1:pos:R:3 gdb_132843=T pbc="F F F"
F        0.25000000       0.16270000      -0.48940000
C        0.12300000       1.44630000      -0.20520000
C       -1.14160000       2.02710000      -0.19010000
N       -1.31220000       3.31580000       0.09110000
C       -0.20480000       4.01710000       0.35680000
N        1.04010000       3.55470000       0.36700000
C        1.22080000       2.25690000       0.08470000
C        2.64030000       1.78440000       0.10910000
O        2.99810000       0.65720000      -0.11650000
H       -2.01890000       1.42450000      -0.41150000
H       -0.33900000       5.07000000       0.58690000
H        3.34160000       2.60560000       0.36380000
