18
Properties=species:S:1:pos:R:3 gdb_33251=T pbc="F F F"
O        0.29780000       1.07130000      -0.85910000
C        0.01630000       0.06990000       0.10630000
C       -1.27600000      -0.62270000      -0.30500000
C       -1.68530000      -1.73150000       0.66770000
C       -2.95160000      -2.43140000       0.29100000
C       -3.78360000      -2.24130000      -0.76290000
O       -4.81630000      -3.13740000      -0.66650000
C       -4.54470000      -3.83010000       0.45960000
N       -3.46680000      -3.46930000       1.07170000
H        1.11280000       1.51370000      -0.60540000
H        0.83200000      -0.66940000       0.16490000
H       -0.09940000       0.50590000       1.11230000
H       -2.06730000       0.13330000      -0.37290000
H       -1.14300000      -1.03280000      -1.31320000
H       -0.88490000      -2.47930000       0.74710000
H       -1.80210000      -1.32220000       1.68020000
H       -3.80560000      -1.57700000      -1.60840000
H       -5.24380000      -4.60490000       0.73330000
