20
Properties=species:S:1:pos:R:3 gdb_13819=T pbc="F F F"
C       -0.00070000       1.18870000       0.54270000
C       -0.08570000       0.23280000      -0.65460000
C       -1.36700000      -0.56830000      -0.62750000
O       -1.52190000      -1.67630000      -1.53880000
C       -1.51240000      -1.94480000      -0.12680000
C       -0.36830000      -2.84140000       0.34970000
C       -0.84920000      -4.28740000       0.51520000
O        0.73330000      -2.77640000      -0.54000000
H        0.90860000       1.79400000       0.49100000
H       -0.85530000       1.87390000       0.57190000
H        0.01700000       0.63970000       1.49000000
H       -0.06270000       0.80980000      -1.58790000
H        0.77080000      -0.44340000      -0.66520000
H       -2.26900000       0.04750000      -0.57740000
H       -2.48850000      -2.22570000       0.27310000
H       -0.01130000      -2.47260000       1.32090000
H       -1.63010000      -4.36160000       1.28010000
H       -1.25470000      -4.66800000      -0.42860000
H       -0.01130000      -4.92340000       0.81070000
H        0.34800000      -2.62550000      -1.41530000
