17
Properties=species:S:1:pos:R:3 gdb_77178=T pbc="F F F"
O        0.71400000       0.68190000       0.68300000
C        0.20470000      -0.36710000      -0.07810000
C       -1.34840000      -0.64570000      -0.17640000
C       -1.16990000      -0.96780000      -1.69460000
C        0.14980000      -0.20130000      -1.59520000
O        0.74700000       0.54520000      -2.32070000
C       -1.88530000      -1.72210000       0.72710000
C       -2.86890000      -2.71880000       0.28810000
O       -1.48510000      -3.06090000       0.42100000
H        0.91280000       1.40490000       0.07450000
H        0.69900000      -1.30860000       0.19890000
H       -1.89550000       0.29010000      -0.02760000
H       -1.01060000      -2.04020000      -1.84510000
H       -1.90110000      -0.58920000      -2.40950000
H       -1.84550000      -1.48290000       1.79110000
H       -3.53420000      -3.18100000       1.01520000
H       -3.24390000      -2.68890000      -0.73370000
