22
Properties=species:S:1:pos:R:3 gdb_120143=T pbc="F F F"
C       -0.18680000       1.49920000       0.18620000
C       -0.16860000       0.00880000      -0.16210000
C        0.96800000      -0.35640000      -1.11730000
N        0.98190000      -1.80010000      -1.34870000
C        0.19010000      -2.46740000      -2.35060000
C        0.09670000      -1.67960000      -3.67070000
C        1.66180000      -1.74560000      -3.76180000
O        2.42150000      -0.55840000      -3.83130000
C        1.70750000      -2.46020000      -2.40570000
H        0.74610000       1.80410000       0.67350000
H       -0.30630000       2.11730000      -0.71070000
H       -1.01000000       1.73850000       0.86640000
H       -0.07130000      -0.59430000       0.74790000
H       -1.12570000      -0.27680000      -0.61810000
H        0.89560000       0.23570000      -2.03790000
H        1.93380000      -0.10150000      -0.66500000
H       -0.47340000      -3.27000000      -2.04760000
H       -0.39400000      -2.23470000      -4.47350000
H       -0.34450000      -0.68100000      -3.60740000
H        1.95680000      -2.44580000      -4.55590000
H        2.34900000      -0.20530000      -4.72390000
H        2.42400000      -3.22970000      -2.13700000
