19
Properties=species:S:1:pos:R:3 gdb_84726=T pbc="F F F"
O       -0.09670000       1.40220000      -0.01720000
C        0.01340000      -0.01980000       0.08050000
C        0.74400000      -0.41600000       1.34060000
C        0.93560000      -1.66140000       1.79560000
C        0.40900000      -2.89560000       1.22500000
C       -0.70030000      -3.04300000       0.47940000
C       -1.70680000      -2.03070000       0.09050000
C       -2.24730000      -1.00600000       1.08760000
C       -1.40700000      -0.55050000      -0.06150000
H        0.79090000       1.75880000      -0.12270000
H        0.58100000      -0.40380000      -0.78640000
H        1.17600000       0.41890000       1.88710000
H        1.56330000      -1.78420000       2.67630000
H        0.96890000      -3.79650000       1.46540000
H       -0.93230000      -4.05030000       0.14090000
H       -2.44210000      -2.41150000      -0.61110000
H       -3.31060000      -0.79540000       1.06910000
H       -1.80210000      -1.01190000       2.07490000
H       -1.92930000      -0.05210000      -0.87390000
