20
Properties=species:S:1:pos:R:3 gdb_121811=T pbc="F F F"
C       -0.09870000       1.48170000      -0.24020000
C       -0.02040000      -0.02190000      -0.04720000
O       -1.34210000      -0.53960000       0.01870000
C       -1.40130000      -1.94140000       0.16280000
C       -2.89840000      -2.31210000       0.06530000
C       -3.68800000      -1.80030000       1.28330000
O       -3.42790000      -1.78620000      -1.14100000
C       -3.00090000      -3.78340000      -0.01330000
N       -3.05690000      -4.93670000      -0.03270000
H        0.90730000       1.90780000      -0.28900000
H       -0.62220000       1.72550000      -1.16910000
H       -0.63370000       1.95010000       0.59060000
H        0.52350000      -0.49710000      -0.87880000
H        0.51930000      -0.26950000       0.88010000
H       -0.84730000      -2.44060000      -0.64540000
H       -0.98220000      -2.26630000       1.12640000
H       -3.53350000      -0.72290000       1.37550000
H       -4.75130000      -2.00070000       1.13960000
H       -3.35510000      -2.28660000       2.20480000
H       -3.02180000      -0.91280000      -1.22960000
