18
Properties=species:S:1:pos:R:3 gdb_17756=T pbc="F F F"
C       -0.02760000       1.49080000       0.06300000
C        0.01790000      -0.00030000      -0.00250000
C        0.27940000      -0.98110000      -1.19180000
C       -0.62300000      -2.01830000      -0.54190000
C        0.86460000      -2.00090000      -0.22690000
C        0.60610000      -1.02520000       0.96710000
C        1.31140000      -0.84250000       2.27060000
C       -0.88820000      -1.04800000       0.64470000
H        0.92570000       1.93840000      -0.24380000
H       -0.81120000       1.89820000      -0.58730000
H       -0.23880000       1.82950000       1.08350000
H        0.50230000      -0.81570000      -2.23810000
H       -1.22140000      -2.79490000      -0.99970000
H        1.61760000      -2.75930000      -0.39940000
H        2.36310000      -0.56620000       2.12600000
H        0.83920000      -0.04950000       2.86110000
H        1.28770000      -1.75900000       2.87260000
H       -1.73450000      -0.90790000       1.30600000
