21
Properties=species:S:1:pos:R:3 gdb_57926=T pbc="F F F"
C       -0.48710000       1.38610000      -0.29080000
C        0.11100000       0.00590000       0.02120000
C        1.15700000      -0.40240000      -1.02990000
C        0.78320000       0.04730000       1.39730000
O        1.66350000       0.84610000       1.65320000
N        0.31270000      -0.89220000       2.29120000
C        0.69620000      -1.15470000       3.61610000
C        1.78470000      -0.30930000       4.22190000
N        0.06290000      -2.10740000       4.18050000
H        0.29260000       2.15020000      -0.23460000
H       -0.91800000       1.39700000      -1.29640000
H       -1.27570000       1.65240000       0.42010000
H       -0.69450000      -0.73880000       0.02640000
H        1.99240000       0.30290000      -1.01800000
H        1.55390000      -1.40390000      -0.83520000
H        0.71320000      -0.40140000      -2.03000000
H       -0.42310000      -1.51200000       1.98250000
H        1.51240000       0.74830000       4.21170000
H        1.96190000      -0.63560000       5.24910000
H        2.70890000      -0.38610000       3.64480000
H        0.39390000      -2.23740000       5.13480000
