21
Properties=species:S:1:pos:R:3 gdb_46543=T pbc="F F F"
O        0.28290000       0.14020000      -0.57620000
C        0.12100000       1.26840000      -0.19000000
C       -1.22720000       1.92550000       0.13510000
C       -0.85680000       3.25370000       0.81210000
C        0.48990000       3.64790000       0.17870000
C        0.44890000       4.43980000      -1.17130000
C        1.60640000       5.33110000      -0.64820000
C        1.30520000       4.82150000       0.78690000
C        1.22390000       2.30290000       0.06540000
H       -1.74420000       2.09440000      -0.81850000
H       -1.85850000       1.25620000       0.72440000
H       -1.61480000       4.03250000       0.68900000
H       -0.72060000       3.10150000       1.89080000
H        0.62040000       3.87490000      -2.09200000
H       -0.48360000       5.00250000      -1.27960000
H        2.58190000       4.99310000      -1.00790000
H        1.52900000       6.40580000      -0.82580000
H        0.65910000       5.51210000       1.33880000
H        2.15480000       4.55990000       1.42420000
H        1.69600000       2.03960000       1.02330000
H        2.00210000       2.25240000      -0.70030000
