17
Properties=species:S:1:pos:R:3 gdb_25640=T pbc="F F F"
C       -0.13750000       1.46430000       0.03290000
C       -0.03590000       0.01460000       0.01460000
C        0.04760000      -1.18960000      -0.00060000
C        0.15960000      -2.59010000      -0.01750000
C        1.23640000      -3.43420000       0.02010000
C        0.72750000      -4.77170000      -0.02490000
C        1.51130000      -6.04720000      -0.00800000
C       -0.62660000      -4.63380000      -0.08680000
O       -0.99480000      -3.32850000      -0.08390000
H        0.85500000       1.92630000      -0.00840000
H       -0.71170000       1.83460000      -0.82400000
H       -0.63180000       1.82030000       0.94410000
H        2.27020000      -3.13010000       0.07380000
H        2.11920000      -6.13270000       0.89970000
H        0.85010000      -6.91720000      -0.04900000
H        2.19640000      -6.10860000      -0.86110000
H       -1.43350000      -5.34750000      -0.13600000
