17
Properties=species:S:1:pos:R:3 gdb_102047=T pbc="F F F"
C       -0.67570000       0.47530000       0.54490000
O        0.53830000      -0.22830000       0.33150000
C        0.91200000      -0.35260000      -1.02410000
C        2.39870000      -0.69990000      -1.04600000
O        3.08280000      -0.60540000      -2.02830000
C        0.05380000      -1.43440000      -1.70220000
O       -0.99930000      -1.22160000      -2.24540000
O        0.59740000      -2.64920000      -1.53820000
C       -0.16150000      -3.74800000      -2.06760000
H       -0.61850000       1.49440000       0.13620000
H       -1.53260000      -0.03510000       0.08950000
H       -0.81640000       0.52880000       1.62640000
H        0.75150000       0.58090000      -1.58090000
H        2.78830000      -1.03570000      -0.06220000
H        0.43260000      -4.63920000      -1.86910000
H       -1.13250000      -3.81340000      -1.57100000
H       -0.31850000      -3.61950000      -3.14090000
