20
Properties=species:S:1:pos:R:3 gdb_58942=T pbc="F F F"
C        0.14560000       1.44540000       0.25780000
C       -0.05460000      -0.04040000      -0.05540000
O       -1.44210000      -0.37210000      -0.11950000
C        0.67390000      -0.46040000      -1.30330000
C        0.38970000      -0.10160000      -2.75720000
N        1.24910000      -1.27480000      -3.18900000
C        2.62210000      -0.81510000      -2.73460000
C        2.15090000      -0.92450000      -1.29560000
C        1.05360000      -1.83810000      -1.76030000
H        1.20410000       1.67710000       0.41090000
H       -0.21460000       2.06830000      -0.57030000
H       -0.41030000       1.71920000       1.15830000
H        0.32480000      -0.63540000       0.78490000
H       -1.84550000       0.18400000      -0.79480000
H       -0.64840000      -0.29960000      -3.03990000
H        0.70480000       0.86770000      -3.16200000
H        3.36070000      -1.57810000      -2.99410000
H        2.93600000       0.15460000      -3.13850000
H        2.71960000      -0.97190000      -0.37470000
H        0.72700000      -2.83640000      -1.50730000
