19
Properties=species:S:1:pos:R:3 gdb_9877=T pbc="F F F"
C        0.04020000       1.58230000       0.25980000
C       -0.02030000       0.07880000       0.05960000
C       -1.34920000      -0.46960000      -0.43540000
C       -1.70040000       0.00050000      -1.86560000
C       -2.94340000      -0.58880000      -2.35640000
N       -3.92840000      -1.06620000      -2.72730000
C        1.23710000      -0.62740000      -0.39680000
C        0.75530000      -0.78370000       1.02660000
H        1.01200000       1.88370000       0.66200000
H       -0.10460000       2.13090000      -0.67790000
H       -0.72960000       1.91840000       0.96470000
H       -1.32240000      -1.56410000      -0.42780000
H       -2.15620000      -0.17190000       0.24470000
H       -1.80030000       1.09040000      -1.90170000
H       -0.89060000      -0.26460000      -2.55500000
H        1.13910000      -1.48040000      -1.06090000
H        2.12450000      -0.02950000      -0.57490000
H        1.31480000      -0.28830000       1.81290000
H        0.33130000      -1.73860000       1.31880000
