25
Properties=species:S:1:pos:R:3 gdb_41946=T pbc="F F F"
C       -0.02610000       1.52460000      -0.14090000
C        1.38450000       2.13690000      -0.03560000
C        2.26790000       1.52030000       1.07140000
C        1.83480000       1.84450000       2.51820000
C        0.52010000       1.16990000       2.95670000
C        0.42690000      -0.30540000       2.52030000
C        0.89580000      -0.57480000       1.07340000
C       -0.02350000      -0.01300000      -0.03350000
C        2.31290000      -0.00620000       0.88860000
H       -0.67310000       1.94910000       0.63150000
H       -0.47870000       1.82010000      -1.09510000
H        1.90600000       1.98670000      -0.99090000
H        1.30790000       3.22260000       0.10180000
H        3.27880000       1.92700000       0.93970000
H        2.64210000       1.50870000       3.18360000
H        1.75840000       2.93010000       2.65650000
H        0.42810000       1.23130000       4.04770000
H       -0.33280000       1.72810000       2.56120000
H        1.05790000      -0.91030000       3.18590000
H       -0.59870000      -0.66900000       2.66000000
H        0.92700000      -1.66410000       0.94320000
H       -1.04920000      -0.37650000       0.10530000
H        0.32180000      -0.43230000      -0.98850000
H        2.69610000      -0.25810000      -0.10840000
H        3.00030000      -0.45570000       1.61660000
