19
Properties=species:S:1:pos:R:3 gdb_114758=T pbc="F F F"
O        0.04580000       1.26150000      -0.52170000
C        0.00490000      -0.13900000      -0.34010000
C       -1.36340000      -0.57090000       0.18240000
O       -2.37440000      -0.07190000      -0.71890000
C       -3.12600000      -1.13440000      -1.24380000
C       -2.41500000      -2.11870000      -2.13100000
C       -2.67760000      -2.43560000      -0.66130000
C       -1.56480000      -2.11530000       0.32230000
O       -0.37670000      -2.87500000       0.15940000
H       -0.74760000       1.48420000      -1.02420000
H        0.23910000      -0.66820000      -1.27800000
H        0.77980000      -0.40270000       0.38460000
H       -1.53100000      -0.06840000       1.14270000
H       -4.16400000      -0.87150000      -1.41330000
H       -2.99980000      -2.66980000      -2.85950000
H       -1.41200000      -1.86570000      -2.46080000
H       -3.37040000      -3.23200000      -0.41910000
H       -1.90150000      -2.34240000       1.33790000
H       -0.24940000      -3.02550000      -0.78320000
