17
Properties=species:S:1:pos:R:3 gdb_82357=T pbc="F F F"
O       -0.01000000       1.40210000       0.06520000
C       -0.00970000       0.00240000      -0.03180000
C       -1.38050000      -0.65230000      -0.00170000
O       -2.07310000      -0.57330000      -1.25670000
C       -1.40110000      -1.79300000      -0.91910000
C       -0.04840000      -1.94180000      -1.58840000
C        0.65490000      -0.57170000      -1.34540000
C        0.50330000       0.35310000      -2.46120000
C        0.39700000       1.14050000      -3.36440000
H       -0.33950000       1.74500000      -0.77650000
H        0.55980000      -0.35700000       0.83390000
H       -2.00210000      -0.57800000       0.88680000
H       -2.04430000      -2.65670000      -0.77090000
H        0.50950000      -2.74800000      -1.09830000
H       -0.12230000      -2.18380000      -2.65140000
H        1.72520000      -0.71740000      -1.17140000
H        0.29890000       1.81830000      -4.17610000
