15
Properties=species:S:1:pos:R:3 gdb_125636=T pbc="F F F"
C       -0.01900000       1.45120000      -0.01800000
C        0.00180000      -0.04360000       0.00370000
N       -0.02570000      -0.67030000      -1.12410000
N       -0.00500000      -2.03640000      -1.05460000
C        0.04100000      -2.70110000       0.12070000
O        0.05370000      -4.03370000      -0.02270000
N        0.07040000      -2.14380000       1.28050000
C        0.05310000      -0.74530000       1.31290000
N        0.07790000      -0.04560000       2.38450000
H        0.86490000       1.84560000       0.49230000
H       -0.05450000       1.81530000      -1.04570000
H       -0.88180000       1.82200000       0.54370000
H       -0.02740000      -2.52230000      -1.93580000
H        0.08660000      -4.39640000       0.87410000
H        0.11200000      -0.67210000       3.19130000
