16
Properties=species:S:1:pos:R:3 gdb_27819=T pbc="F F F"
C       -0.02150000       1.49150000      -0.00940000
C        0.01430000      -0.00940000      -0.06060000
N        0.02420000      -0.61860000      -1.20980000
C        0.05690000      -1.99700000      -1.18380000
N        0.11290000      -2.55800000      -2.43050000
C        0.06880000      -2.74000000      -0.02540000
C        0.05980000      -2.09230000       1.24900000
O        0.06890000      -2.58450000       2.36400000
N        0.03430000      -0.67100000       1.11970000
H        0.85820000       1.88350000       0.51270000
H       -0.03910000       1.88450000      -1.02500000
H       -0.90900000       1.84220000       0.52850000
H       -0.14080000      -1.95060000      -3.19280000
H       -0.12130000      -3.53110000      -2.53260000
H        0.09190000      -3.82200000      -0.03900000
H        0.02470000      -0.16750000       1.99630000
