14
Properties=species:S:1:pos:R:3 gdb_64836=T pbc="F F F"
C       -0.01870000       1.55240000      -0.02420000
C        0.01300000       0.01830000       0.01910000
O        0.75570000      -0.47690000      -1.10020000
C        1.82980000      -1.23430000      -0.66500000
O        2.60230000      -1.73820000      -1.42190000
C        1.78900000      -1.24520000       0.81910000
C        0.74370000      -0.53650000       1.22940000
C       -1.35930000      -0.52640000      -0.04300000
N       -2.44140000      -0.92950000      -0.05730000
H        1.00460000       1.93150000       0.02350000
H       -0.48460000       1.88640000      -0.95330000
H       -0.59040000       1.94520000       0.82040000
H        2.53000000      -1.76540000       1.40750000
H        0.40880000      -0.33940000       2.23870000
