9
Properties=species:S:1:pos:R:3 gdb_3945=T pbc="F F F"
O       -0.13950000       1.26780000       0.01040000
C        0.05620000      -0.03630000       0.00240000
N        1.17600000      -0.66100000      -0.00740000
O        0.76720000      -2.03830000      -0.01230000
C       -0.59350000      -2.09250000      -0.00460000
N       -1.36540000      -3.07520000      -0.00520000
O       -1.05450000      -0.78690000       0.00500000
H        0.72410000       1.70400000       0.00760000
H       -0.84800000      -3.95030000      -0.01290000
