19
Properties=species:S:1:pos:R:3 gdb_56916=T pbc="F F F"
C        0.07370000       1.51620000      -0.20300000
C       -0.05600000       0.03340000       0.06840000
C       -1.19030000      -0.64900000      -0.66750000
O        1.17900000      -0.71640000       0.07800000
C        0.45400000      -0.59380000       1.30000000
C        1.11510000       0.17280000       2.44030000
O        0.12350000       0.69550000       3.32350000
C        2.08000000      -0.67450000       3.14410000
C        2.82390000      -1.40350000       3.74430000
H        0.96920000       1.94160000       0.25180000
H        0.13130000       1.69370000      -1.28220000
H       -0.79980000       2.05330000       0.18060000
H       -1.07040000      -0.52670000      -1.74940000
H       -1.21370000      -1.71860000      -0.44520000
H       -2.15380000      -0.21140000      -0.38530000
H       -0.02850000      -1.51620000       1.63370000
H        1.63670000       1.04180000       2.02970000
H       -0.14110000      -0.01520000       3.91780000
H        3.50130000      -2.03350000       4.26640000
