17
Properties=species:S:1:pos:R:3 gdb_11421=T pbc="F F F"
C       -0.29670000       1.35930000      -0.00060000
C        0.06370000      -0.11980000      -0.15910000
C        1.01590000      -0.37390000      -1.32170000
O        1.37630000      -1.73390000      -1.44410000
C        0.58170000      -2.30670000      -2.46920000
C        0.09180000      -1.12140000      -3.27150000
N       -0.49870000      -1.16830000      -4.38280000
O        0.40940000       0.00130000      -2.56700000
H        0.59770000       1.96850000       0.17140000
H       -0.79250000       1.73880000      -0.89810000
H       -0.96800000       1.50810000       0.84940000
H        0.55300000      -0.49880000       0.74520000
H       -0.83900000      -0.72360000      -0.31210000
H        1.93520000       0.21490000      -1.21410000
H        1.19330000      -2.98020000      -3.07400000
H       -0.26770000      -2.87490000      -2.06490000
H       -0.73970000      -0.23190000      -4.71000000
