23
Properties=species:S:1:pos:R:3 gdb_100698=T pbc="F F F"
C       -0.17790000       1.55330000       0.07440000
C        0.00380000       0.03400000       0.00170000
C        0.78960000      -0.45330000      -1.22920000
C        2.25880000      -0.01440000      -1.19860000
C        0.67690000      -1.99740000      -1.35180000
O       -0.68220000      -2.44080000      -1.32420000
C        1.36130000      -2.51430000      -2.54080000
C        1.86760000      -2.92960000      -3.55250000
C        2.49220000      -3.44880000      -4.76100000
H        0.77590000       2.08210000       0.16650000
H       -0.68250000       1.93410000      -0.82110000
H       -0.78910000       1.82960000       0.93940000
H        0.51380000      -0.31920000       0.90930000
H       -0.97670000      -0.45040000      -0.00610000
H        0.31820000      -0.03220000      -2.13020000
H        2.34540000       1.07480000      -1.16120000
H        2.76620000      -0.41790000      -0.31350000
H        2.79670000      -0.36460000      -2.08300000
H        1.12830000      -2.44010000      -0.45330000
H       -1.04810000      -2.28300000      -2.20150000
H        2.07100000      -4.42130000      -5.03870000
H        2.35130000      -2.77020000      -5.60940000
H        3.57030000      -3.58380000      -4.62050000
