17
Properties=species:S:1:pos:R:3 gdb_95108=T pbc="F F F"
N        0.13480000       1.44950000      -0.00660000
C        0.03330000       0.00050000      -0.01310000
C        0.70060000      -0.63000000       1.23570000
C       -0.01670000      -1.97240000       1.49130000
C       -1.41170000      -1.75340000       0.94130000
O       -1.99760000      -0.50070000       1.32120000
C       -1.38400000      -0.59890000       0.02480000
C       -2.25400000      -0.44850000      -1.11410000
N       -2.90100000      -0.29370000      -2.05980000
H       -0.25140000       1.84170000      -0.86050000
H       -0.40920000       1.82670000       0.76520000
H        0.51590000      -0.36660000      -0.92750000
H        1.77710000      -0.74130000       1.09730000
H        0.54830000       0.04270000       2.08340000
H        0.44970000      -2.79480000       0.93620000
H       -0.02700000      -2.25510000       2.54810000
H       -2.11550000      -2.57200000       0.81790000
