12
Properties=species:S:1:pos:R:3 gdb_129267=T pbc="F F F"
N       -0.03570000       1.17810000       0.58620000
C       -0.02500000       0.04130000       0.02940000
O        1.13240000      -0.54730000      -0.43430000
N        1.12550000      -1.79940000      -1.04460000
C       -0.02610000      -2.38230000      -1.15390000
N       -1.27010000      -1.89140000      -0.72470000
C       -1.24460000      -0.73980000      -0.16620000
C       -0.03080000      -3.66340000      -1.77860000
C       -0.06180000      -4.74480000      -2.30170000
H        0.90290000       1.57860000       0.63870000
H       -2.16890000      -0.29230000       0.19310000
H       -0.08480000      -5.70090000      -2.76490000
