18
Properties=species:S:1:pos:R:3 gdb_16334=T pbc="F F F"
C       -0.14150000       1.51790000      -0.05990000
C        0.08750000       0.02290000      -0.01570000
O        1.23050000      -0.43270000      -0.80820000
C        1.72540000      -1.16910000       0.30880000
C        2.10250000      -0.25120000       1.42780000
C        0.64680000      -0.66240000       1.23770000
C       -0.17890000      -1.31740000       2.30020000
O       -0.82160000      -0.37020000       3.14760000
H        0.73060000       2.06980000       0.30060000
H       -0.35130000       1.84210000      -1.08400000
H       -1.00160000       1.77380000       0.56750000
H       -0.80920000      -0.50980000      -0.36130000
H        2.13580000      -2.15670000       0.13100000
H        2.58760000      -0.72650000       2.27640000
H        2.45090000       0.75200000       1.20150000
H       -0.99170000      -1.89860000       1.85000000
H        0.44220000      -2.01980000       2.87930000
H       -0.13330000       0.18900000       3.52350000
