25
Properties=species:S:1:pos:R:3 gdb_104712=T pbc="F F F"
C        0.76230000       1.12090000       0.28720000
C        0.33100000      -0.29020000      -0.12210000
C        0.56420000      -0.59420000      -1.60680000
C        2.05210000      -0.76160000      -2.01810000
C        1.82610000      -2.28340000      -2.26320000
C        2.53650000      -3.22660000      -1.29870000
C        0.30010000      -2.08060000      -2.01570000
O       -0.04520000       0.37200000      -2.45540000
C       -1.45350000       0.43110000      -2.40370000
H        1.82960000       1.27920000       0.09990000
H        0.21660000       1.87890000      -0.28070000
H        0.58170000       1.29310000       1.35250000
H        0.87790000      -1.03530000       0.46810000
H       -0.72890000      -0.44430000       0.11800000
H        2.27680000      -0.19320000      -2.92230000
H        2.78850000      -0.51000000      -1.24920000
H        2.05190000      -2.58640000      -3.28950000
H        2.33580000      -2.96120000      -0.25400000
H        2.20930000      -4.26220000      -1.44440000
H        3.62230000      -3.19490000      -1.44360000
H       -0.14460000      -2.71730000      -1.24460000
H       -0.29990000      -2.16020000      -2.92510000
H       -1.82740000       0.83370000      -1.45160000
H       -1.77140000       1.09960000      -3.20820000
H       -1.91590000      -0.55370000      -2.56570000
