22
Properties=species:S:1:pos:R:3 gdb_58306=T pbc="F F F"
C       -0.02310000       1.52160000       0.19490000
C       -0.01570000       0.00540000       0.02440000
O        0.75450000      -0.63560000       1.03950000
C       -1.44050000      -0.58570000      -0.03420000
O       -2.22230000       0.05990000      -1.03640000
C       -1.42950000      -2.10770000      -0.22410000
C       -2.79920000      -2.73090000      -0.08700000
C       -2.94770000      -4.14890000       0.31690000
N       -3.33320000      -3.06880000       1.24620000
H        0.99810000       1.91180000       0.18610000
H       -0.60070000       1.99870000      -0.59930000
H       -0.48890000       1.79650000       1.15060000
H        0.49560000      -0.25250000      -0.91480000
H        0.47600000      -0.27200000       1.88750000
H       -1.94920000      -0.34390000       0.91000000
H       -1.86750000      -0.19920000      -1.89490000
H       -1.01860000      -2.32760000      -1.22240000
H       -0.73510000      -2.55030000       0.49840000
H       -3.55340000      -2.30370000      -0.74390000
H       -3.77400000      -4.74510000      -0.06000000
H       -2.04200000      -4.71410000       0.52440000
H       -2.60070000      -2.95270000       1.94400000
