21
Properties=species:S:1:pos:R:3 gdb_88780=T pbc="F F F"
O       -0.04810000       1.50450000       0.34880000
C        0.01140000       0.12180000       0.13640000
C       -0.56140000      -0.81740000       1.16920000
C       -1.28770000      -0.57730000      -0.14330000
C       -2.59020000       0.18740000      -0.17360000
C       -2.90610000       0.85510000      -1.54230000
C       -4.41230000       0.78680000      -1.61990000
C       -4.92220000      -0.03640000      -0.70500000
C       -3.84830000      -0.66810000       0.14880000
H        0.57530000       1.72430000       1.04860000
H        0.89020000      -0.21180000      -0.41580000
H       -0.07430000      -1.77080000       1.34360000
H       -0.99200000      -0.35810000       2.05360000
H       -1.22970000      -1.38530000      -0.87010000
H       -2.53190000       0.98950000       0.56790000
H       -2.50620000       1.87290000      -1.59930000
H       -2.45030000       0.29970000      -2.37630000
H       -4.98580000       1.32400000      -2.36770000
H       -5.97460000      -0.27430000      -0.59260000
H       -3.70240000      -1.72270000      -0.13080000
H       -4.08650000      -0.66800000       1.21860000
