21
Properties=species:S:1:pos:R:3 gdb_94618=T pbc="F F F"
C       -0.42390000       1.38540000      -0.04060000
C        0.16480000      -0.01190000      -0.06310000
O        1.51950000      -0.04280000      -0.58380000
C        2.06040000      -0.48250000       0.67730000
C        0.64360000      -0.61010000       1.28190000
O        0.32350000       0.17380000       2.40290000
C        0.61550000      -0.43410000       3.62570000
C        1.97930000      -0.26580000       4.24900000
C        0.77400000       0.47410000       4.79850000
H        0.18280000       2.06010000       0.56720000
H       -0.47200000       1.77610000      -1.06160000
H       -1.43710000       1.36790000       0.37310000
H       -0.47920000      -0.68690000      -0.64210000
H        2.64200000      -1.40680000       0.57890000
H        2.67770000       0.28850000       1.15500000
H        0.32640000      -1.64880000       1.44050000
H        0.10570000      -1.38700000       3.77380000
H        2.39440000      -1.08950000       4.81960000
H        2.70660000       0.32220000       3.70180000
H        0.71440000       1.53690000       4.59400000
H        0.35660000       0.16890000       5.75120000
