22
Properties=species:S:1:pos:R:3 gdb_87146=T pbc="F F F"
C       -0.07920000       1.78100000       0.62750000
C       -0.34710000       0.29670000       0.66990000
O        0.25040000      -0.52360000      -0.33820000
C        0.63920000      -0.74580000       1.03270000
C        2.08200000      -0.39920000       1.34740000
C        0.18210000      -2.08060000       1.59610000
C        0.63370000      -3.27900000       0.78340000
C        0.03520000      -2.19940000       3.07120000
N       -1.15340000      -2.24110000       2.20040000
H        0.97710000       2.00950000       0.47930000
H       -0.64210000       2.23540000      -0.19460000
H       -0.41140000       2.25280000       1.55880000
H       -1.40000000       0.05760000       0.83480000
H        2.41730000       0.46500000       0.77260000
H        2.21140000      -0.18820000       2.41350000
H        2.73660000      -1.23870000       1.09380000
H        1.72550000      -3.36190000       0.75940000
H        0.22580000      -4.19570000       1.21480000
H        0.27600000      -3.18750000      -0.24600000
H        0.27950000      -3.13490000       3.56800000
H        0.19760000      -1.31240000       3.67940000
H       -1.63740000      -1.34940000       2.25330000
