13
Properties=species:S:1:pos:R:3 gdb_5427=T pbc="F F F"
N        0.07880000       1.34430000       0.16460000
C       -0.04900000      -0.01260000       0.05390000
C       -1.13820000      -0.86530000       0.02010000
C       -2.53420000      -0.49950000       0.01400000
O       -3.46520000      -1.27990000      -0.01950000
C       -0.57250000      -2.19630000      -0.01990000
C        0.76420000      -2.05360000      -0.01060000
O        1.10120000      -0.70490000       0.03560000
H        0.95470000       1.71890000      -0.16990000
H       -0.72670000       1.88420000      -0.11100000
H       -2.72660000       0.60120000       0.04210000
H       -1.13610000      -3.11440000      -0.05390000
H        1.60340000      -2.72670000      -0.02990000
