13
Properties=species:S:1:pos:R:3 gdb_128997=T pbc="F F F"
N        0.01440000       1.31100000       0.00920000
N        1.27200000       1.82620000       0.00020000
C        2.10450000       0.80170000      -0.01360000
C        1.38710000      -0.43010000      -0.01380000
C        0.02180000      -0.04590000       0.00140000
N       -1.00930000      -0.88900000       0.00650000
C       -0.62330000      -2.16230000      -0.00450000
C        0.73070000      -2.56920000      -0.01970000
N        1.75170000      -1.71980000      -0.02460000
H       -0.77770000       1.93150000       0.02040000
H        3.17120000       0.96680000      -0.02290000
H       -1.40970000      -2.91230000      -0.00130000
H        0.96860000      -3.62930000      -0.02800000
