18
Properties=species:S:1:pos:R:3 gdb_73094=T pbc="F F F"
C       -0.11560000       1.50970000       0.08740000
C        0.00010000       0.00070000       0.02950000
C       -1.29910000      -0.77180000      -0.17370000
C       -1.13710000      -2.02840000       0.65850000
N       -1.90420000      -3.02750000       0.64070000
O       -0.03830000      -1.91310000       1.47910000
C        0.72730000      -0.75420000       1.17430000
C        1.83630000      -0.99580000       0.14170000
O        1.03100000      -0.42290000      -0.91150000
H        0.85570000       1.96660000       0.29780000
H       -0.46910000       1.89670000      -0.87360000
H       -0.82330000       1.81830000       0.86360000
H       -2.17000000      -0.21240000       0.18230000
H       -1.46130000      -1.01740000      -1.22450000
H       -1.58760000      -3.73760000       1.30310000
H        0.97780000      -0.23820000       2.10220000
H        2.75700000      -0.42390000       0.31170000
H        2.08060000      -2.04800000      -0.03650000
