17
Properties=species:S:1:pos:R:3 gdb_82007=T pbc="F F F"
C       -0.22100000       1.54210000       0.03330000
C        0.04050000       0.05220000      -0.05800000
N        0.71260000      -0.47290000      -1.30120000
C        2.09050000       0.04730000      -1.31170000
C        1.78870000      -1.09090000      -0.42540000
C        1.15210000      -0.58910000       0.86850000
O        2.00370000       0.26660000       1.59730000
C        0.62300000      -1.65330000       1.72920000
N        0.19120000      -2.45810000       2.43790000
H        0.69920000       2.12870000       0.07220000
H       -0.80490000       1.86440000      -0.83440000
H       -0.80200000       1.77080000       0.93290000
H       -0.89450000      -0.50230000       0.04880000
H        2.61070000      -0.18390000      -2.23570000
H        2.32230000       1.01810000      -0.88800000
H        2.15820000      -2.09770000      -0.57870000
H        1.56550000       0.51780000       2.41880000
