20
Properties=species:S:1:pos:R:3 gdb_96672=T pbc="F F F"
C       -0.47230000       1.29700000      -0.12030000
N       -0.18350000      -0.12090000      -0.09720000
C        0.66160000      -0.62140000      -0.89570000
C        1.48670000       0.04740000      -1.97070000
O        0.93320000      -1.95190000      -0.85200000
C        0.26930000      -2.69130000       0.16060000
C       -1.21010000      -3.04150000      -0.07150000
O       -0.91130000      -4.45660000      -0.02530000
C        0.50720000      -4.20220000       0.03280000
H        0.09730000       1.88110000      -0.85570000
H       -1.53970000       1.44830000      -0.32070000
H       -0.27670000       1.72290000       0.87100000
H        2.21600000       0.73300000      -1.52790000
H        2.02300000      -0.70560000      -2.54790000
H        0.85410000       0.62950000      -2.64590000
H        0.47730000      -2.25080000       1.13690000
H       -1.91330000      -2.73740000       0.70960000
H       -1.58850000      -2.72820000      -1.05200000
H        1.02280000      -4.48110000      -0.89500000
H        0.98400000      -4.70240000       0.88310000
