21
Properties=species:S:1:pos:R:3 gdb_101732=T pbc="F F F"
O        0.03270000       1.42090000      -0.34030000
C        0.05390000       0.07690000       0.09300000
C       -1.34290000      -0.53780000       0.06790000
O       -1.78650000      -0.37880000      -1.28280000
C       -1.35370000      -2.00430000       0.50910000
C       -2.74350000      -2.60940000       0.51790000
C       -3.36330000      -3.14980000      -0.76760000
C       -2.94190000      -4.08530000       0.33830000
O       -1.79010000      -4.86200000       0.18470000
H       -0.49830000       1.41910000      -1.14620000
H        0.72140000      -0.53940000      -0.53260000
H        0.44780000       0.06900000       1.11450000
H       -1.98630000       0.05590000       0.73840000
H       -2.70380000      -0.66360000      -1.32990000
H       -0.70330000      -2.58800000      -0.14900000
H       -0.92570000      -2.07020000       1.51820000
H       -3.43540000      -2.13470000       1.21020000
H       -4.42210000      -3.00370000      -0.95550000
H       -2.73340000      -3.13840000      -1.65100000
H       -3.73090000      -4.55550000       0.92510000
H       -1.98000000      -5.55220000      -0.45900000
