17
Properties=species:S:1:pos:R:3 gdb_44456=T pbc="F F F"
N        0.01240000       1.24050000       0.40610000
C       -0.00980000       0.03680000       0.04450000
C       -1.29070000      -0.84510000       0.00030000
C       -0.65800000      -2.23410000      -0.03070000
N       -0.58230000      -3.37010000      -1.12910000
C       -0.10200000      -2.26710000      -2.08000000
C        0.61920000      -1.94260000      -0.75570000
C        0.91000000      -3.45860000      -0.68700000
O        1.11810000      -0.67610000      -0.37480000
H        0.95450000       1.62820000       0.33730000
H       -1.90570000      -0.64720000       0.87800000
H       -1.87780000      -0.57270000      -0.87980000
H       -0.58260000      -2.67610000       0.96470000
H        0.49570000      -2.64470000      -2.91150000
H       -0.89560000      -1.60900000      -2.43290000
H        1.05120000      -3.91080000       0.29610000
H        1.54570000      -3.91020000      -1.45070000
