19
Properties=species:S:1:pos:R:3 gdb_40282=T pbc="F F F"
C        0.66970000       1.45410000       0.07660000
O        1.41960000       0.24410000       0.04850000
C       -0.01880000       0.14680000       0.01370000
C       -0.57420000      -0.44220000       1.29990000
O       -1.95900000      -0.24050000       1.47710000
C       -2.78040000      -1.14200000       0.75830000
C       -3.01820000      -0.74630000      -0.70030000
C       -1.80720000      -0.67690000      -1.59660000
C       -0.56380000      -0.29730000      -1.29650000
H        0.68680000       2.00200000       1.01840000
H        0.73780000       2.06720000      -0.82080000
H       -0.33480000      -1.51740000       1.32400000
H       -0.07130000       0.03310000       2.14710000
H       -2.35470000      -2.15690000       0.80550000
H       -3.74170000      -1.15650000       1.28310000
H       -3.73380000      -1.46320000      -1.12220000
H       -3.52880000       0.22790000      -0.71760000
H       -2.00010000      -0.92070000      -2.63930000
H        0.17670000      -0.25940000      -2.09240000
