12
Properties=species:S:1:pos:R:3 gdb_8612=T pbc="F F F"
O       -0.05680000       1.43030000       0.01040000
C       -0.00170000       0.00140000       0.00220000
C       -1.39370000      -0.47790000       0.01290000
C       -2.52070000      -0.88720000       0.02150000
C        0.68760000      -0.48580000      -1.21180000
C        1.27120000      -0.84260000      -2.19840000
C        0.71070000      -0.49890000       1.19730000
C        1.31310000      -0.86630000       2.16860000
H        0.85660000       1.74320000       0.00350000
H       -3.52090000      -1.24520000       0.02870000
H        1.77950000      -1.16690000      -3.07320000
H        1.83780000      -1.19980000       3.03010000
