15
Properties=species:S:1:pos:R:3 gdb_15304=T pbc="F F F"
O       -0.42540000       0.15040000      -0.07660000
C        0.00120000       1.27090000       0.01500000
C        1.41380000       1.68870000      -0.34940000
C        1.41470000       2.85580000      -1.31720000
C        1.21230000       4.26550000      -0.84150000
C        2.57770000       3.84300000      -1.36270000
C        3.67110000       3.70540000      -0.44280000
N        4.54690000       3.58570000       0.30400000
H       -0.64020000       2.10330000       0.38650000
H        1.92560000       1.98080000       0.57790000
H        1.93930000       0.82320000      -0.76230000
H        1.00750000       2.62480000      -2.29730000
H        0.64390000       4.95420000      -1.45500000
H        1.13290000       4.43730000       0.22610000
H        2.86760000       4.20670000      -2.34230000
