21
Properties=species:S:1:pos:R:3 gdb_73122=T pbc="F F F"
C        0.32800000       1.50850000      -0.16690000
C       -0.05430000       0.04690000       0.02420000
C       -1.49510000      -0.26360000       0.53910000
C       -0.90230000      -1.24750000       1.58630000
C        0.53040000      -0.73180000       1.25990000
C        1.59430000      -1.72940000       0.75440000
C        1.34990000      -1.82660000      -0.74000000
O        0.00150000      -2.18100000      -1.07830000
C        0.38190000      -0.79950000      -1.16180000
H        1.39710000       1.62020000      -0.38440000
H       -0.22800000       1.95900000      -0.99800000
H        0.10870000       2.09130000       0.73340000
H       -1.96360000       0.61450000       0.99290000
H       -2.18600000      -0.68960000      -0.19150000
H       -1.23270000      -1.10640000       2.61850000
H       -1.04390000      -2.29220000       1.30710000
H        0.92400000      -0.07790000       2.04190000
H        2.61050000      -1.35490000       0.92850000
H        1.51940000      -2.70610000       1.24570000
H        2.11140000      -2.23000000      -1.40440000
H        0.36550000      -0.38110000      -2.16710000
