18
Properties=species:S:1:pos:R:3 gdb_81149=T pbc="F F F"
N        0.27950000       1.42370000       0.14250000
C        0.08330000      -0.00060000       0.02650000
C       -1.36670000      -0.62010000      -0.04050000
C       -1.38500000      -0.20240000      -1.54040000
C        0.12570000      -0.59120000      -1.42690000
N        0.12120000      -2.04220000      -1.12730000
C       -1.01590000      -2.11130000      -0.14640000
C        1.10580000      -0.17940000      -2.40800000
N        1.86350000       0.16800000      -3.20860000
H       -0.42590000       1.95870000      -0.35220000
H        0.23360000       1.70120000       1.11680000
H        0.77660000      -0.50280000       0.70570000
H       -2.15160000      -0.32660000       0.65580000
H       -1.99060000      -0.78840000      -2.23690000
H       -1.55910000       0.86150000      -1.70520000
H       -0.10510000      -2.56130000      -1.96990000
H       -0.67720000      -2.53520000       0.80460000
H       -1.84690000      -2.71980000      -0.51820000
