21
Properties=species:S:1:pos:R:3 gdb_115846=T pbc="F F F"
C        0.04070000       1.56900000      -0.00350000
C        0.01950000       0.03710000      -0.01700000
C       -1.39820000      -0.55290000       0.01680000
C       -2.24090000      -0.23740000      -1.24530000
O       -2.99000000      -1.41460000      -1.59530000
C       -2.53900000      -2.51250000      -0.84130000
C       -1.11420000      -2.91860000      -1.10750000
O       -0.45060000      -2.37170000      -2.20920000
C       -1.46200000      -2.07260000       0.11070000
H        1.06690000       1.94910000      -0.00180000
H       -0.46210000       1.98920000      -0.88170000
H       -0.46210000       1.96590000       0.88610000
H        0.53440000      -0.34580000      -0.90410000
H        0.57430000      -0.33840000       0.85170000
H       -1.91810000      -0.15520000       0.89870000
H       -2.95580000       0.57710000      -1.09040000
H       -1.58600000       0.03430000      -2.08160000
H       -3.32750000      -3.22420000      -0.62320000
H       -0.83440000      -3.94990000      -0.89920000
H       -1.12600000      -2.18040000      -2.87150000
H       -1.34640000      -2.52920000       1.08750000
