20
Properties=species:S:1:pos:R:3 gdb_80022=T pbc="F F F"
C        1.10550000       1.33840000       0.40450000
N        0.75230000      -0.06470000       0.32970000
C       -0.66240000      -0.59600000       0.32650000
C       -0.34980000      -2.04560000      -0.06140000
C        0.69450000      -2.33270000       0.71980000
C        0.90300000      -1.01790000       1.48930000
C       -0.58930000      -0.72400000       1.91790000
C       -0.91900000       0.51860000       2.73880000
O       -1.21360000      -1.82780000       2.53920000
H        2.18890000       1.42670000       0.25730000
H        0.62610000       1.85780000      -0.43270000
H        0.86390000       1.89570000       1.32300000
H       -1.43390000      -0.03610000      -0.20450000
H       -0.88580000      -2.65620000      -0.77230000
H        1.26400000      -3.24280000       0.83210000
H        1.75450000      -0.90660000       2.16170000
H       -2.01080000       0.61560000       2.81640000
H       -0.52370000       0.41030000       3.75440000
H       -0.55210000       1.45200000       2.32160000
H       -2.02980000      -1.52310000       2.94800000
