17
Properties=species:S:1:pos:R:3 gdb_10643=T pbc="F F F"
C       -0.29580000       1.30920000       0.10960000
O        0.25050000       0.00840000      -0.07290000
C        0.76660000      -0.55920000       1.08520000
C       -0.19280000      -1.20500000       2.07710000
C        0.67320000      -2.06860000       1.19700000
C        0.08560000      -2.87330000       0.06010000
C        1.94990000       0.09640000       1.60710000
N        2.88780000       0.63530000       2.01750000
H        0.47060000       2.02150000       0.44030000
H       -0.68210000       1.62110000      -0.86220000
H       -1.11350000       1.29980000       0.84250000
H        0.02580000      -1.13130000       3.13590000
H       -1.24170000      -1.11950000       1.81260000
H        1.52440000      -2.52730000       1.69140000
H       -0.71420000      -2.32350000      -0.43920000
H        0.84900000      -3.10870000      -0.68770000
H       -0.32210000      -3.81670000       0.43710000
