17
Properties=species:S:1:pos:R:3 gdb_11243=T pbc="F F F"
C       -0.08590000       1.46980000       0.06320000
C       -0.02990000      -0.02200000      -0.00140000
C       -0.05670000      -0.80720000      -1.07810000
C        0.01990000      -2.26570000      -0.72730000
N        0.09710000      -2.22070000       0.73480000
C        0.07090000      -0.85510000       1.25610000
C        0.18280000      -3.34300000       1.48500000
O        0.20380000      -4.47260000       1.03690000
H        0.80460000       1.88020000       0.55570000
H       -0.15500000       1.90940000      -0.93480000
H       -0.95060000       1.81040000       0.64650000
H       -0.12550000      -0.46410000      -2.10330000
H       -0.85670000      -2.83970000      -1.05760000
H        0.89850000      -2.77030000      -1.15230000
H        0.97820000      -0.61570000       1.83190000
H       -0.78540000      -0.68580000       1.92690000
H        0.23270000      -3.12020000       2.57070000
