19
Properties=species:S:1:pos:R:3 gdb_53562=T pbc="F F F"
C       -0.00580000       1.36960000      -0.26080000
C       -0.01930000      -0.06590000      -0.01660000
C       -0.01990000      -1.25340000       0.18170000
C       -0.04510000      -2.69250000       0.42970000
C       -1.41770000      -3.30690000       0.18930000
C       -1.81520000      -3.85140000      -1.16070000
O       -0.81000000      -3.85150000      -2.14670000
C       -1.57730000      -4.80400000      -0.00910000
O       -0.44680000      -5.61890000      -0.08150000
H        0.75000000       1.64090000      -1.00660000
H       -0.97520000       1.72030000      -0.63270000
H        0.21800000       1.92980000       0.65400000
H        0.69890000      -3.18950000      -0.19930000
H        0.25310000      -2.89550000       1.46650000
H       -2.22120000      -2.81540000       0.73050000
H       -2.81910000      -3.65870000      -1.53200000
H       -1.09420000      -4.44030000      -2.85430000
H       -2.41300000      -5.30990000       0.46520000
H       -0.00720000      -5.38970000      -0.91260000
