16
Properties=species:S:1:pos:R:3 gdb_36019=T pbc="F F F"
C       -0.09460000      -1.22820000      -0.04020000
C       -0.05890000      -0.02810000      -0.01070000
C        0.00110000       1.42580000       0.00580000
C        1.45540000       1.97610000       0.04830000
C        1.42340000       3.52200000      -0.10750000
C        2.75370000       4.11300000      -0.22130000
N        3.80450000       4.58030000      -0.32880000
C        2.14370000       1.58780000       1.27390000
C        2.69340000       1.29690000       2.30130000
H       -0.13100000      -2.28940000      -0.05830000
H       -0.49390000       1.82300000      -0.88960000
H       -0.55000000       1.81470000       0.87090000
H        1.99510000       1.56060000      -0.81060000
H        0.84990000       3.78530000      -1.00340000
H        0.90990000       3.96740000       0.75140000
H        3.19470000       1.02900000       3.19860000
