19
Properties=species:S:1:pos:R:3 gdb_58067=T pbc="F F F"
C        0.03100000       1.53490000      -0.11200000
C        0.01570000       0.01060000       0.05040000
C        0.81120000      -0.43400000       1.28150000
C       -1.44670000      -0.53800000       0.06710000
O       -2.03650000      -0.09720000      -1.16060000
C       -1.45030000      -2.01240000       0.11490000
C       -1.47250000      -3.21380000       0.11170000
C       -2.21120000      -0.01720000       1.21650000
C       -2.85790000       0.41380000       2.13310000
H        1.06350000       1.88670000      -0.20120000
H       -0.51910000       1.84450000      -1.00190000
H       -0.41770000       2.02520000       0.75790000
H        0.45930000      -0.44290000      -0.84390000
H        0.38160000      -0.01450000       2.19700000
H        0.82940000      -1.52240000       1.38040000
H        1.84420000      -0.08180000       1.20330000
H       -2.94160000      -0.42780000      -1.18250000
H       -1.49190000      -4.27590000       0.11520000
H       -3.42820000       0.79150000       2.94600000
