15
Properties=species:S:1:pos:R:3 gdb_43651=T pbc="F F F"
O        1.15470000       0.19670000       0.16200000
C        0.55250000       1.22710000       0.07790000
O       -0.80820000       1.30910000       0.29400000
C       -1.25280000       2.65430000       0.12540000
C       -1.95670000       3.12040000       1.41850000
C       -2.50650000       4.46200000       1.28460000
C       -2.94680000       5.57000000       1.13460000
C       -0.01120000       3.42680000      -0.22160000
C        1.02720000       2.59460000      -0.24730000
H       -1.97780000       2.67830000      -0.69860000
H       -2.75090000       2.40180000       1.64880000
H       -1.23680000       3.07680000       2.24390000
H       -3.34620000       6.54780000       1.02270000
H       -0.02540000       4.49300000      -0.40280000
H        2.06580000       2.80490000      -0.45510000
