15
Properties=species:S:1:pos:R:3 gdb_31095=T pbc="F F F"
C        0.01390000       1.27740000      -0.03070000
O       -0.15180000       0.04030000       0.65750000
C       -1.31590000      -0.60590000       0.38360000
C       -1.42810000      -1.92780000       0.08430000
O       -0.54620000      -2.94580000      -0.07880000
N       -2.79180000      -2.17300000      -0.02600000
C       -3.40370000      -0.97760000       0.19600000
O       -4.74630000      -0.90190000       0.13130000
N       -2.56990000      -0.01050000       0.44990000
H        0.96580000       1.69420000       0.30470000
H        0.04150000       1.12400000      -1.11780000
H       -0.79880000       1.96970000       0.21010000
H        0.33100000      -2.58190000       0.08720000
H       -3.22960000      -3.05370000      -0.23460000
H       -4.97330000       0.01510000       0.32930000
