14
Properties=species:S:1:pos:R:3 gdb_45342=T pbc="F F F"
N        0.01350000       1.26220000      -0.15700000
C        0.01830000       0.02690000       0.08030000
O        1.10820000      -0.70340000       0.47860000
C        0.86860000      -2.11390000       0.36650000
C       -0.63930000      -2.28650000       0.27010000
O       -1.29060000      -2.31090000       1.58340000
C       -1.87170000      -1.08080000       1.37580000
O       -2.62430000      -0.49980000       2.07910000
C       -1.19070000      -0.87840000       0.00430000
H        0.94500000       1.66260000      -0.03530000
H        1.36440000      -2.49250000      -0.53520000
H        1.28740000      -2.60960000       1.24530000
H       -0.97310000      -3.12580000      -0.33820000
H       -1.84920000      -0.66440000      -0.83320000
