15
Properties=species:S:1:pos:R:3 gdb_49160=T pbc="F F F"
O       -0.10710000      -0.01230000      -0.01470000
C       -0.02520000       1.19740000      -0.01730000
C        1.22850000       1.93880000      -0.00030000
C        1.40140000       3.27590000      -0.00190000
C        2.89310000       3.46900000       0.02060000
C        3.52450000       2.32290000      -0.85740000
O        4.66410000       2.18680000       0.05230000
C        3.49680000       2.32860000       0.92520000
C        2.63500000       1.37890000       0.02340000
H       -0.93470000       1.83870000      -0.03360000
H        0.64390000       4.04910000      -0.01620000
H        3.35090000       4.45570000       0.02450000
H        3.71800000       2.30500000      -1.93210000
H        3.65690000       2.31780000       2.00560000
H        2.81420000       0.30760000       0.02970000
