14
Properties=species:S:1:pos:R:3 gdb_24944=T pbc="F F F"
O        0.07680000       0.05310000       0.00230000
C       -0.02930000       1.23630000       0.01040000
C       -1.30540000       2.11420000       0.03300000
C       -0.72770000       3.49420000       0.03260000
C        0.62210000       3.33980000       0.01280000
N        1.25860000       4.53300000       0.01030000
C        0.26620000       5.51310000       0.02910000
C       -0.96780000       4.89960000       0.04360000
O        1.11200000       2.06460000      -0.00100000
H       -1.91480000       1.85190000      -0.83960000
H       -1.89020000       1.84220000       0.91940000
H        2.25080000       4.69010000      -0.00260000
H        0.53580000       6.55570000       0.03070000
H       -1.91700000       5.41210000       0.05970000
