18
Properties=species:S:1:pos:R:3 gdb_75924=T pbc="F F F"
O        0.40620000       0.88270000      -0.72880000
C        0.08160000      -0.33780000      -0.12650000
C        0.47320000      -0.39180000       1.33870000
N        1.43330000       0.27860000       1.80920000
O       -0.37270000      -1.20030000       2.02060000
C       -1.45130000      -1.62270000       1.14430000
C       -1.40400000      -0.65970000      -0.02570000
C       -2.43240000       0.42140000      -0.21240000
C       -2.33320000      -0.72370000      -1.19640000
H        1.04960000       1.29960000      -0.13530000
H        0.59390000      -1.16710000      -0.64760000
H        1.53130000       0.16490000       2.81770000
H       -1.26170000      -2.66120000       0.84480000
H       -2.38110000      -1.58290000       1.71640000
H       -3.28170000       0.44520000       0.46240000
H       -2.06330000       1.38930000      -0.52960000
H       -1.91980000      -0.51480000      -2.17760000
H       -3.11700000      -1.47480000      -1.19050000
