21
Properties=species:S:1:pos:R:3 gdb_101027=T pbc="F F F"
C        0.20220000       1.56150000       0.16550000
C        0.06840000       0.04050000       0.05960000
C        0.58630000      -0.50190000      -1.28380000
O        1.91490000      -0.06910000      -1.53010000
C        0.51730000      -2.03050000      -1.38880000
C       -0.77290000      -2.73900000      -0.99250000
O       -0.64260000      -4.14320000      -1.04550000
C        1.43910000      -2.71720000      -2.29840000
O        1.69410000      -2.69150000      -0.87190000
H        1.24190000       1.86700000       0.02980000
H       -0.39500000       2.06340000      -0.60420000
H       -0.14240000       1.91800000       1.14060000
H        0.62470000      -0.44550000       0.87260000
H       -0.98260000      -0.24450000       0.18640000
H       -0.02130000      -0.07690000      -2.09460000
H        2.47850000      -0.65190000      -1.00180000
H       -1.07670000      -2.41140000       0.01220000
H       -1.57510000      -2.46060000      -1.68560000
H        0.16110000      -4.34940000      -0.55040000
H        1.16320000      -3.69370000      -2.68470000
H        2.13400000      -2.12800000      -2.88840000
