19
Properties=species:S:1:pos:R:3 gdb_114529=T pbc="F F F"
O       -0.22120000       1.45520000      -0.45810000
C        0.00260000       0.06330000      -0.34700000
C       -1.25430000      -0.62180000       0.16220000
O       -2.34390000      -0.46430000      -0.79250000
C       -2.60290000      -1.88370000      -0.78920000
C       -1.84270000      -2.63980000      -1.90800000
C       -0.77930000      -3.07540000      -0.84820000
O        0.59420000      -3.02260000      -1.12810000
C       -1.44520000      -2.15570000       0.21750000
H       -1.00980000       1.55930000      -1.00450000
H        0.29980000      -0.35280000      -1.32290000
H        0.83240000      -0.07950000       0.35280000
H       -1.53050000      -0.14530000       1.11260000
H       -3.65520000      -2.11730000      -0.61760000
H       -2.37210000      -3.46010000      -2.39820000
H       -1.47050000      -1.95100000      -2.67110000
H       -0.96550000      -4.11160000      -0.54900000
H        0.79330000      -2.18410000      -1.55500000
H       -1.57330000      -2.57260000       1.21560000
