14
Properties=species:S:1:pos:R:3 gdb_125080=T pbc="F F F"
C       -0.01610000       1.51780000       0.05550000
C       -0.01430000       0.02640000       0.01430000
C        0.00650000      -0.84900000      -1.04540000
N        0.03190000      -0.56910000      -2.39410000
C        0.05280000      -1.46510000      -3.45530000
O        0.05200000      -2.66170000      -3.36500000
O       -0.00090000      -2.09400000      -0.60980000
N       -0.02880000      -1.98760000       0.85330000
N       -0.03500000      -0.76640000       1.13140000
H        0.87850000       1.94690000      -0.41130000
H       -0.89340000       1.94560000      -0.44420000
H       -0.03570000       1.84550000       1.09660000
H        0.03570000       0.41210000      -2.63100000
H        0.07060000      -0.91310000      -4.41440000
