21
Properties=species:S:1:pos:R:3 gdb_74775=T pbc="F F F"
C       -0.00740000       1.48760000       0.04610000
C       -0.06460000      -0.00300000      -0.01480000
C       -0.10040000      -0.79730000      -1.08860000
C       -0.02730000      -2.26000000      -0.67500000
C       -0.65010000      -2.17770000       0.73690000
C        0.03870000      -0.89040000       1.23880000
C        1.50970000      -1.21390000       1.46900000
C        2.14270000      -2.04680000       0.63980000
C        1.45350000      -2.70810000      -0.53450000
H        0.92280000       1.82730000       0.52000000
H       -0.06140000       1.93450000      -0.95070000
H       -0.82970000       1.89510000       0.64850000
H       -0.08460000      -0.46390000      -2.12100000
H       -0.56000000      -2.93490000      -1.35140000
H       -1.73330000      -2.03890000       0.66900000
H       -0.43750000      -3.04770000       1.36520000
H       -0.42180000      -0.45120000       2.12800000
H        2.03350000      -0.74320000       2.29610000
H        3.19670000      -2.27370000       0.78350000
H        1.50260000      -3.80030000      -0.41660000
H        2.00600000      -2.48700000      -1.45920000
