14
Properties=species:S:1:pos:R:3 gdb_49370=T pbc="F F F"
N       -0.00400000       1.22630000      -0.71170000
C        0.02080000       0.10870000      -0.13260000
N        0.92240000      -0.64910000       0.60930000
C        0.08480000      -1.85840000       0.62680000
C       -0.05850000      -2.49480000       1.93690000
N       -0.06160000      -3.06450000       2.94160000
C       -1.05570000      -0.98360000       0.00280000
C       -2.24450000      -0.56540000       0.84120000
O       -2.52000000      -1.00710000       1.92270000
H        0.88350000       1.72570000      -0.64280000
H        1.93170000      -0.62270000       0.57140000
H        0.41230000      -2.62920000      -0.08140000
H       -1.41000000      -1.34200000      -0.96770000
H       -2.85330000       0.22440000       0.35270000
