13
Properties=species:S:1:pos:R:3 gdb_696=T pbc="F F F"
C       -0.09410000       1.61300000       0.01340000
C        1.40430000       1.29750000       0.03420000
C        1.25450000       0.07710000       0.99240000
C        2.00710000      -0.78440000      -0.01430000
N        1.21600000       0.11550000      -0.95950000
C        0.02230000       0.08620000       0.03750000
H       -0.51250000       2.09280000       0.90170000
H       -0.48190000       2.05280000      -0.90910000
H        2.26430000       1.96300000      -0.06380000
H        1.25920000       0.07480000       2.08810000
H        3.09180000      -0.65730000      -0.09820000
H        1.73880000      -1.84320000      -0.09490000
H       -0.75040000      -0.67940000      -0.05640000
