20
Properties=species:S:1:pos:R:3 gdb_71027=T pbc="F F F"
C       -0.11030000       1.44260000      -0.05330000
C        0.11080000      -0.03980000      -0.00020000
C        0.68400000      -0.96510000      -1.11310000
C        0.21950000      -1.89190000       0.01460000
C       -0.07750000      -3.27520000       0.54490000
C       -0.78600000      -2.79830000       1.86920000
C       -0.70620000      -1.26060000       1.71660000
C        0.67080000      -0.91850000       1.15030000
N       -1.05490000      -1.03650000       0.24550000
H        0.84000000       1.97500000      -0.16960000
H       -0.75440000       1.70610000      -0.89860000
H       -0.58920000       1.79900000       0.86480000
H        0.11190000      -1.00630000      -2.04470000
H        1.75990000      -0.90990000      -1.29890000
H       -0.74680000      -3.84520000      -0.10380000
H        0.82110000      -3.86870000       0.73210000
H       -1.82470000      -3.13610000       1.91900000
H       -0.27130000      -3.14960000       2.76840000
H       -1.22840000      -0.65860000       2.46400000
H        1.65430000      -0.87160000       1.63340000
