17
Properties=species:S:1:pos:R:3 gdb_42788=T pbc="F F F"
O       -0.07060000       0.03250000      -0.20550000
C       -0.06480000       1.22430000      -0.11510000
C       -1.12430000       2.30790000       0.12490000
C        0.00810000       3.07860000       0.86750000
C        1.05050000       2.28690000      -0.00120000
C        1.16770000       3.03690000      -1.32750000
O        2.21340000       3.45650000      -1.75110000
C       -0.15770000       3.18350000      -2.08420000
C       -1.42830000       3.02370000      -1.21100000
H       -2.03320000       2.03760000       0.66440000
H        0.00940000       4.16580000       0.75910000
H        0.08710000       2.81180000       1.92240000
H        2.02890000       2.02260000       0.39620000
H       -0.14290000       4.12330000      -2.63990000
H       -0.12690000       2.38460000      -2.83760000
H       -2.19130000       2.46560000      -1.76040000
H       -1.85430000       4.00580000      -0.98050000
