17
Properties=species:S:1:pos:R:3 gdb_35345=T pbc="F F F"
N       -0.18210000      -1.26250000      -0.01020000
C       -0.12260000      -0.10700000       0.02700000
C       -0.06310000       1.34990000       0.01560000
C       -0.31570000       2.09570000       1.39850000
C        1.21190000       2.29380000       1.39290000
C        2.50400000       3.14700000       1.25020000
C        2.67080000       1.79620000       0.42200000
C        2.12510000       1.04200000       1.64080000
N        1.26000000       2.11610000      -0.09780000
H       -0.70890000       1.68950000      -0.79760000
H       -0.89350000       3.00740000       1.23930000
H       -0.74070000       1.50850000       2.21300000
H        2.39940000       4.05220000       0.65290000
H        3.16330000       3.26340000       2.11260000
H        3.49670000       1.53550000      -0.24240000
H        2.73900000       1.04930000       2.54500000
H        1.69660000       0.05750000       1.46700000
