21
Properties=species:S:1:pos:R:3 gdb_61540=T pbc="F F F"
C        0.15660000       1.44100000       0.02840000
C        0.11070000      -0.07480000      -0.01150000
C       -1.19060000      -0.67610000      -0.52260000
C       -1.46670000      -0.41060000      -2.01760000
O       -0.50900000      -1.01740000      -2.84230000
C       -2.85400000      -0.89080000      -2.38740000
O       -3.03880000      -1.68340000      -3.27990000
C        1.39030000      -0.81860000      -0.30370000
C        0.81910000      -0.82800000       1.09340000
H        1.10290000       1.79100000       0.45150000
H        0.06920000       1.87910000      -0.97250000
H       -0.65400000       1.84920000       0.64480000
H       -1.17960000      -1.76240000      -0.37640000
H       -2.03040000      -0.27870000       0.06570000
H       -1.47660000       0.68370000      -2.18090000
H       -1.01320000      -1.56900000      -3.46160000
H       -3.69400000      -0.47440000      -1.79410000
H        1.32300000      -1.72070000      -0.89900000
H        2.28580000      -0.23390000      -0.48580000
H        1.32420000      -0.24890000       1.85940000
H        0.37170000      -1.74690000       1.45860000
