23
Properties=species:S:1:pos:R:3 gdb_99514=T pbc="F F F"
C        0.04250000       1.37950000       0.39990000
C        0.03590000      -0.14230000       0.16510000
C        0.79410000      -0.84270000       1.30660000
C       -1.42830000      -0.62410000       0.16040000
C        0.66940000      -0.49030000      -1.23270000
C        2.13130000      -0.04490000      -1.46110000
O        2.16740000       1.36270000      -1.64410000
C        0.58960000      -1.92400000      -1.52070000
C        0.56700000      -3.10250000      -1.76070000
H        1.05460000       1.78300000       0.44520000
H       -0.48340000       1.90730000      -0.40280000
H       -0.46780000       1.60770000       1.34220000
H        0.28660000      -0.66320000       2.26020000
H        0.84250000      -1.92400000       1.14740000
H        1.81700000      -0.46650000       1.40980000
H       -1.99570000      -0.15060000      -0.64900000
H       -1.49650000      -1.70730000       0.03060000
H       -1.91590000      -0.36140000       1.10500000
H        0.07800000       0.04150000      -1.99170000
H        2.75770000      -0.36050000      -0.61450000
H        2.50520000      -0.56230000      -2.35530000
H        3.07730000       1.61480000      -1.82650000
H        0.52870000      -4.14110000      -1.97830000
