16
Properties=species:S:1:pos:R:3 gdb_124228=T pbc="F F F"
C        0.09770000       1.32910000      -0.11480000
C       -0.00810000      -0.15380000       0.09110000
N       -0.02190000      -0.70110000       1.22410000
O       -0.08210000      -0.75700000      -1.16410000
C       -0.14930000      -2.09420000      -1.36230000
N       -0.36650000      -3.00000000      -0.41580000
N       -0.36230000      -4.17430000      -1.08920000
C       -0.15670000      -4.02280000      -2.41680000
C       -0.01040000      -2.67320000      -2.64470000
H        0.98600000       1.57090000      -0.70680000
H       -0.77120000       1.70010000      -0.66750000
H        0.15520000       1.82230000       0.85440000
H       -0.11140000      -1.71440000       1.15890000
H       -0.51000000      -5.02470000      -0.57460000
H       -0.13070000      -4.86800000      -3.08600000
H        0.16880000      -2.16800000      -3.57800000
