18
Properties=species:S:1:pos:R:3 gdb_124527=T pbc="F F F"
C       -0.03180000       1.54100000       0.01880000
C        0.03220000       0.00350000       0.00730000
C        0.71570000      -0.51790000      -1.26910000
C        0.73910000      -0.51240000       1.24110000
N        0.04930000      -1.29740000       2.08560000
C        0.72390000      -1.71710000       3.14680000
C        2.05350000      -1.34900000       3.33840000
N        2.68590000      -0.56750000       2.46570000
N        2.01790000      -0.14330000       1.40140000
H        0.97580000       1.96580000       0.01780000
H       -0.56280000       1.90290000      -0.86700000
H       -0.55800000       1.91200000       0.90400000
H       -0.98530000      -0.39650000       0.05590000
H        1.75070000      -0.16850000      -1.31880000
H        0.72250000      -1.61190000      -1.29980000
H        0.18430000      -0.15770000      -2.15540000
H        0.20150000      -2.35550000       3.85620000
H        2.62960000      -1.67760000       4.19730000
