20
Properties=species:S:1:pos:R:3 gdb_83990=T pbc="F F F"
C       -0.47420000       1.05750000      -0.12880000
N       -0.03230000      -0.31290000       0.11370000
C        0.50040000      -1.12940000      -0.96800000
C        0.56390000      -0.72080000      -2.42960000
O        1.08240000       0.55560000      -2.72520000
C        2.48520000       0.68840000      -2.59070000
C        2.97090000       0.91500000      -1.18160000
C        2.50010000       0.35710000      -0.06520000
C        1.41640000      -0.64230000       0.10910000
H        0.15090000       1.63410000      -0.81710000
H       -1.49000000       1.02050000      -0.53650000
H       -0.52220000       1.57650000       0.83410000
H        0.18660000      -2.17460000      -0.89600000
H        1.13080000      -1.49910000      -2.97050000
H       -0.45390000      -0.72270000      -2.83820000
H        2.98980000      -0.18960000      -3.03250000
H        2.75950000       1.55160000      -3.20660000
H        3.80430000       1.60970000      -1.09290000
H        2.98070000       0.63940000       0.87040000
H        1.65410000      -1.35420000       0.90020000
