22
Properties=species:S:1:pos:R:3 gdb_88465=T pbc="F F F"
C        1.41150000       0.83260000      -0.67320000
C        0.20710000       0.14240000      -0.08020000
N        0.40730000      -1.15130000       0.60260000
C       -0.06510000       0.00770000       1.37480000
C        0.81300000       0.53930000       2.48410000
O        0.55560000       1.93920000       2.52490000
C        0.64770000      -0.16020000       3.87150000
C        2.19070000      -0.14090000       4.04780000
C        2.32860000       0.17180000       2.53230000
H        2.30580000       0.66960000      -0.07090000
H        1.61150000       0.45510000      -1.68200000
H        1.23520000       1.91090000      -0.74110000
H       -0.68790000       0.22190000      -0.69750000
H       -0.35910000      -1.78820000       0.40540000
H       -1.11890000       0.02600000       1.65450000
H        1.01440000       2.30810000       3.28700000
H        0.03670000       0.37970000       4.60070000
H        0.25660000      -1.17620000       3.76750000
H        2.53450000       0.67860000       4.68650000
H        2.65650000      -1.06160000       4.40470000
H        2.53830000      -0.72010000       1.93950000
H        3.01190000       0.97390000       2.24050000
