18
Properties=species:S:1:pos:R:3 gdb_97181=T pbc="F F F"
C        0.06380000       1.44290000      -0.12790000
N        0.03300000      -0.01030000      -0.10860000
C        0.46410000      -0.61550000       0.92380000
C        0.49260000      -2.12430000       0.97900000
C        0.22070000      -2.62850000       2.39580000
N        1.13860000      -1.96540000       3.31190000
C        1.37750000      -0.61750000       3.25790000
O        1.90310000       0.02050000       4.14760000
N        0.97290000      -0.00280000       2.06750000
H        1.09020000       1.84080000      -0.09350000
H       -0.39140000       1.79980000      -1.05460000
H       -0.49420000       1.89030000       0.70960000
H       -0.23670000      -2.50830000       0.26540000
H        1.48740000      -2.46510000       0.66620000
H       -0.82890000      -2.44170000       2.66950000
H        0.38900000      -3.70700000       2.45470000
H        1.28990000      -2.35780000       4.22780000
H        1.12240000       0.99450000       2.07260000
