23
Properties=species:S:1:pos:R:3 gdb_122028=T pbc="F F F"
C       -0.11770000       1.36830000      -0.00570000
O       -0.00420000      -0.03310000      -0.01850000
C        0.65440000      -0.53980000       1.12310000
C        0.70800000      -2.05790000       1.01190000
C        1.38160000      -2.72290000       2.21640000
O        0.73060000      -2.37070000       3.44120000
C        1.48290000      -4.24210000       2.05200000
C        2.21170000      -4.92130000       3.20450000
O        2.22000000      -6.31850000       2.94710000
H        0.86850000       1.85990000       0.01300000
H       -0.64090000       1.66440000      -0.91850000
H       -0.69150000       1.72580000       0.86460000
H        1.67620000      -0.12570000       1.19290000
H        0.12650000      -0.24460000       2.04290000
H       -0.31540000      -2.44280000       0.90380000
H        1.24170000      -2.33100000       0.09450000
H        2.39340000      -2.30990000       2.32980000
H       -0.17050000      -2.71160000       3.39690000
H        0.47490000      -4.67170000       1.96810000
H        2.00010000      -4.47820000       1.11470000
H        3.23750000      -4.52300000       3.27760000
H        1.70350000      -4.68530000       4.14960000
H        2.63480000      -6.75750000       3.69520000
