19
Properties=species:S:1:pos:R:3 gdb_82383=T pbc="F F F"
O        0.04530000       1.43920000       0.03050000
C       -0.02210000       0.02630000      -0.00900000
C       -1.47450000      -0.47560000      -0.01950000
C       -2.61630000       0.49880000      -0.13050000
C       -2.21770000      -0.32330000      -1.32980000
C       -1.41370000       0.28270000      -2.48400000
C       -0.01750000      -0.32910000      -2.54430000
O        1.10850000       0.51130000      -2.19830000
C        0.69170000      -0.50170000      -1.27130000
H        0.55850000       1.70250000      -0.74800000
H        0.48300000      -0.37630000       0.87850000
H       -1.63790000      -1.38440000       0.55100000
H       -3.54610000       0.25540000       0.37210000
H       -2.35320000       1.55000000      -0.12900000
H       -2.88460000      -1.13270000      -1.61010000
H       -1.93280000       0.12570000      -3.43320000
H       -1.30990000       1.36330000      -2.35310000
H        0.20260000      -1.00510000      -3.36830000
H        1.40200000      -1.31490000      -1.13920000
