18
Properties=species:S:1:pos:R:3 gdb_11765=T pbc="F F F"
C        0.01180000      -1.19070000      -0.02160000
C        0.01450000       0.01250000      -0.00430000
C        0.01600000       1.45260000       0.01540000
C       -0.28720000       2.27310000       1.31610000
C        0.43170000       3.40650000       0.53290000
C        1.33900000       2.29010000      -0.05450000
C       -0.54850000       3.66840000      -0.62680000
C       -0.86830000       2.19110000      -1.02470000
H        0.01110000      -2.25210000      -0.03500000
H       -1.33680000       2.41150000       1.59130000
H        0.28720000       1.91040000       2.17040000
H        0.85190000       4.27320000       1.04220000
H        2.08810000       1.92920000       0.65260000
H        1.78640000       2.44420000      -1.04070000
H       -1.43770000       4.21670000      -0.30300000
H       -0.08540000       4.23080000      -1.44260000
H       -0.57190000       1.94780000      -2.04810000
H       -1.92410000       1.93370000      -0.90850000
