18
Properties=species:S:1:pos:R:3 gdb_56517=T pbc="F F F"
C       -0.00170000       1.56150000       0.12400000
C       -0.01670000       0.02630000       0.03400000
N        0.73090000      -0.51380000       1.18110000
C       -1.40160000      -0.46920000      -0.01050000
C       -2.52080000      -0.90740000       0.02370000
C        0.72810000      -0.46540000      -1.25450000
N        0.07560000       0.00730000      -2.47180000
C        2.16160000      -0.10490000      -1.19690000
N        3.27320000       0.20730000      -1.25950000
H        1.02940000       1.92360000       0.15310000
H       -0.52860000       2.00570000      -0.72300000
H       -0.51340000       1.88480000       1.03480000
H        0.37260000      -0.10390000       2.03860000
H        0.56680000      -1.51420000       1.25770000
H       -3.51330000      -1.28540000       0.03930000
H        0.66480000      -1.55920000      -1.25040000
H        0.32370000       0.97500000      -2.65200000
H        0.40230000      -0.52640000      -3.27040000
