21
Properties=species:S:1:pos:R:3 gdb_104049=T pbc="F F F"
C        0.14660000       1.50560000      -0.07710000
C       -0.03030000       0.00850000       0.09260000
C       -1.48850000      -0.42110000      -0.11560000
O       -1.86800000      -0.24460000      -1.46420000
O        0.77270000      -0.74830000      -0.88150000
C        1.33210000      -1.57830000       0.16140000
C        2.72130000      -1.08970000       0.62920000
C        2.03220000      -0.22650000       1.73420000
C        0.64060000      -0.73720000       1.27040000
H        1.20210000       1.78150000      -0.12510000
H       -0.33900000       1.82550000      -1.00300000
H       -0.31960000       2.04180000       0.75690000
H       -1.60500000      -1.47100000       0.19930000
H       -2.16180000       0.18890000       0.49740000
H       -1.16600000      -0.66700000      -1.97800000
H        1.17820000      -2.64400000      -0.02600000
H        3.35800000      -1.88400000       1.02800000
H        3.27160000      -0.54720000      -0.14260000
H        2.27990000      -0.55180000       2.74690000
H        2.19020000       0.85260000       1.67940000
H       -0.02950000      -1.14100000       2.03010000
