15
Properties=species:S:1:pos:R:3 gdb_2665=T pbc="F F F"
C        0.00970000       1.37320000      -0.04910000
C        0.38960000      -0.06640000      -0.40420000
N       -0.66170000      -1.07070000      -0.46930000
C       -1.86230000      -0.75230000      -0.23580000
N       -2.85990000      -1.72330000      -0.30130000
C       -4.19050000      -1.47920000      -0.06540000
O       -4.65610000      -0.40210000       0.22540000
H        0.90820000       1.99730000      -0.04270000
H       -0.68750000       1.80270000      -0.77630000
H       -0.44890000       1.44160000       0.94300000
H        0.90010000      -0.08120000      -1.37660000
H        1.13460000      -0.43620000       0.31320000
H       -2.25450000       0.23080000       0.02510000
H       -2.55770000      -2.65770000      -0.53950000
H       -4.79800000      -2.39760000      -0.17400000
