16
Properties=species:S:1:pos:R:3 gdb_35467=T pbc="F F F"
N       -0.09260000      -1.16200000      -0.15190000
C       -0.04880000      -0.01230000      -0.04550000
C        0.00470000       1.45430000       0.03820000
O       -0.55990000       1.92330000       1.26140000
C        0.49180000       2.72630000       1.90280000
C        1.13120000       3.40810000       0.68630000
C        1.46770000       2.03670000       0.04340000
C        2.17630000       1.35080000       1.19890000
C        1.59020000       1.76820000       2.32720000
H       -0.56530000       1.86240000      -0.80630000
H        0.00900000       3.33450000       2.66410000
H        0.42210000       4.01370000       0.11510000
H        2.02590000       3.98400000       0.92370000
H        1.95140000       2.02000000      -0.93130000
H        2.92870000       0.58200000       1.08580000
H        1.75820000       1.41490000       3.33550000
