17
Properties=species:S:1:pos:R:3 gdb_40346=T pbc="F F F"
C        0.13440000       1.47060000      -0.08230000
O        1.16780000       0.49830000      -0.25090000
C       -0.17180000       0.03520000      -0.01330000
C       -0.41730000      -0.66420000       1.25600000
C       -0.29970000      -2.13380000       1.68570000
C        0.56120000      -1.75420000       2.89080000
C       -0.12420000      -0.36980000       2.78050000
O       -1.51490000      -0.64300000       3.12170000
C       -1.59820000      -1.33650000       1.87900000
H        0.18330000       2.05160000       0.83740000
H       -0.12990000       2.03690000      -0.97460000
H       -0.63960000      -0.42650000      -0.88480000
H       -0.23960000      -3.00780000       1.04970000
H        0.42140000      -2.28760000       3.83580000
H        1.61860000      -1.70240000       2.62190000
H        0.26720000       0.53550000       3.23890000
H       -2.56930000      -1.61210000       1.48910000
