17
Properties=species:S:1:pos:R:3 gdb_85991=T pbc="F F F"
C       -0.69240000       1.21320000      -0.42870000
C       -0.02670000      -0.11700000      -0.12300000
O        1.17890000      -0.36420000      -0.89380000
C        2.04280000      -0.49600000       0.25950000
C        2.65790000      -1.87700000       0.43860000
C        3.08660000       0.61270000       0.28200000
O        4.05640000       0.60820000       0.99200000
C        0.80540000      -0.20810000       1.16150000
O        0.60660000      -0.11570000       2.33020000
H       -0.00110000       2.04720000      -0.27800000
H       -1.03270000       1.22930000      -1.46790000
H       -1.55880000       1.35340000       0.22450000
H       -0.73990000      -0.94580000      -0.22970000
H        3.26070000      -2.12920000      -0.43850000
H        3.30640000      -1.86400000       1.31740000
H        1.88710000      -2.64090000       0.56500000
H        2.85610000       1.44200000      -0.42170000
