23
Properties=species:S:1:pos:R:3 gdb_100025=T pbc="F F F"
C        0.10240000       1.34750000       0.22400000
O        0.46170000      -0.00980000       0.11350000
C        0.73160000      -0.53840000      -1.18980000
C       -0.36020000      -0.14160000      -2.19680000
C        2.12070000      -0.06530000      -1.65040000
C        0.70910000      -2.07290000      -1.01740000
C        1.28380000      -2.90720000      -2.14640000
C        0.65370000      -2.66660000       0.32710000
O       -0.52160000      -2.58170000      -0.48790000
H        0.83200000       2.02460000      -0.24350000
H       -0.88820000       1.55940000      -0.19980000
H        0.07210000       1.56860000       1.29430000
H       -0.35710000       0.93460000      -2.38860000
H       -0.20000000      -0.64130000      -3.15570000
H       -1.34030000      -0.43660000      -1.81450000
H        2.89070000      -0.40150000      -0.95000000
H        2.36470000      -0.44050000      -2.64750000
H        2.15630000       1.02690000      -1.69730000
H        2.36990000      -2.79730000      -2.21760000
H        1.05500000      -3.95960000      -1.96370000
H        0.85270000      -2.63660000      -3.11560000
H        1.04370000      -3.67420000       0.47260000
H        0.65610000      -2.02110000       1.19820000
