17
Properties=species:S:1:pos:R:3 gdb_27260=T pbc="F F F"
N        0.18650000       1.41600000      -0.10090000
C       -0.00240000       0.02010000      -0.02880000
C       -1.10940000      -0.79310000      -0.05600000
C       -2.60830000      -0.82340000       0.01490000
C       -2.85900000      -2.34000000      -0.26490000
O       -1.63530000      -3.06060000       0.01600000
C       -0.64070000      -2.12840000      -0.03240000
C        0.72350000      -2.15010000       0.00820000
N        1.10130000      -0.80140000       0.02540000
H        0.45170000       1.81570000       0.79500000
H       -0.66380000       1.87530000      -0.40250000
H       -2.99030000      -0.53230000       1.00230000
H       -3.12430000      -0.20610000      -0.72770000
H       -3.64780000      -2.77440000       0.35350000
H       -3.11380000      -2.49390000      -1.32130000
H        1.44940000      -2.94170000       0.06410000
H        2.02680000      -0.46910000      -0.18450000
