22
Properties=species:S:1:pos:R:3 gdb_115063=T pbc="F F F"
C       -0.15400000       1.49330000      -0.12480000
C       -0.03900000      -0.02630000       0.03210000
C        0.76440000      -0.48930000       1.26090000
C        0.13460000      -0.01120000       2.59130000
C        0.69610000      -0.69960000       3.80860000
C        1.15970000      -1.94910000       3.77480000
C        1.16230000      -2.72840000       2.51320000
N       -0.13580000      -2.81900000       1.77850000
C        0.95370000      -1.99580000       1.23570000
H        0.83540000       1.96380000      -0.16180000
H       -0.67820000       1.75180000      -1.05020000
H       -0.70700000       1.94830000       0.70250000
H       -1.03980000      -0.47370000       0.08500000
H        0.43270000      -0.44140000      -0.86870000
H        1.77350000      -0.05440000       1.19570000
H        0.26420000       1.07180000       2.68690000
H       -0.94930000      -0.18550000       2.55050000
H        0.68640000      -0.14840000       4.74520000
H        1.54570000      -2.42770000       4.67010000
H        1.79530000      -3.61140000       2.48940000
H       -0.18060000      -3.70600000       1.28240000
H        1.47860000      -2.37160000       0.35800000
