20
Properties=species:S:1:pos:R:3 gdb_22287=T pbc="F F F"
C        0.00140000       1.54420000      -0.03650000
C        0.08430000       0.02850000      -0.05290000
C       -1.13610000      -0.64410000       0.55780000
C        0.71590000      -0.75130000      -1.17040000
C        1.93540000      -0.03510000      -1.78250000
C        2.54730000      -0.03250000      -0.38540000
N        3.67960000       0.25560000       0.10660000
O        4.51730000       0.82770000      -0.87570000
C        1.38370000      -0.71930000       0.23400000
H        0.90110000       2.02270000      -0.42780000
H       -0.85290000       1.89040000      -0.63010000
H       -0.14040000       1.90450000       0.98850000
H       -2.04290000      -0.37390000       0.00500000
H       -1.04620000      -1.73480000       0.54270000
H       -1.27570000      -0.33200000       1.59860000
H        0.20970000      -1.59000000      -1.63270000
H        2.51700000      -0.67460000      -2.45310000
H        1.77020000       0.92690000      -2.27490000
H        5.33160000       0.97290000      -0.38280000
H        1.43610000      -1.48070000       1.00260000
