15
Properties=species:S:1:pos:R:3 gdb_34625=T pbc="F F F"
N       -0.04510000      -1.20830000      -0.33570000
C       -0.05180000      -0.07440000      -0.11260000
C       -0.05230000       1.35280000       0.17120000
N       -1.15180000       1.96100000       0.08160000
C       -1.38140000       3.38070000       0.19430000
C       -0.37630000       4.33020000       0.78130000
C        0.80980000       4.07040000       1.31940000
C        1.45560000       2.72800000       1.47740000
O        1.21020000       1.76380000       0.44200000
H       -1.63370000       3.72000000      -0.82310000
H       -2.32430000       3.50600000       0.74730000
H       -0.71550000       5.36470000       0.76230000
H        1.38960000       4.89310000       1.73050000
H        2.54330000       2.83210000       1.48190000
H        1.17030000       2.27480000       2.43760000
