22
Properties=species:S:1:pos:R:3 gdb_118819=T pbc="F F F"
C       -0.10190000       1.62700000      -0.05200000
C        0.19440000       0.12750000       0.03380000
C        0.43210000      -0.50740000      -1.34320000
C        0.82440000      -1.97590000      -1.28930000
C       -0.22490000      -2.93930000      -0.76540000
C        1.81350000      -2.49870000      -2.30010000
N        2.22590000      -2.22130000      -0.94270000
C        2.71820000      -3.17710000      -0.07510000
O        3.46500000      -4.07530000      -0.38170000
H        0.72830000       2.16810000      -0.51920000
H       -1.00020000       1.82120000      -0.64880000
H       -0.26310000       2.05740000       0.94100000
H        1.08400000      -0.03920000       0.65380000
H       -0.63710000      -0.37690000       0.54090000
H       -0.47050000      -0.40700000      -1.96090000
H        1.22830000       0.04430000      -1.85600000
H       -1.12780000      -2.88240000      -1.38240000
H        0.13860000      -3.97060000      -0.78770000
H       -0.51360000      -2.70460000       0.26370000
H        1.75680000      -3.54550000      -2.58860000
H        2.20510000      -1.83080000      -3.06300000
H        2.40460000      -2.98240000       0.96890000
