17
Properties=species:S:1:pos:R:3 gdb_83303=T pbc="F F F"
O        0.16250000       1.35960000       0.32430000
C       -0.00340000      -0.01150000       0.08150000
C       -1.44890000      -0.50460000      -0.16860000
C       -2.10460000       0.29850000      -1.31100000
C       -1.43150000      -0.33480000      -2.56620000
C       -0.43520000      -1.32380000      -1.90090000
O       -1.16420000      -1.78840000      -0.75700000
C        0.62730000      -0.43860000      -1.25540000
O        1.65930000      -0.00710000      -1.70190000
H        0.98940000       1.61570000      -0.10800000
H        0.42250000      -0.62580000       0.89090000
H       -2.04910000      -0.64150000       0.72930000
H       -3.18620000       0.15620000      -1.31950000
H       -1.89320000       1.36420000      -1.20530000
H       -2.14830000      -0.89750000      -3.16770000
H       -0.93240000       0.39180000      -3.21080000
H       -0.08110000      -2.15130000      -2.51200000
