12
Properties=species:S:1:pos:R:3 gdb_24808=T pbc="F F F"
O       -0.03370000      -0.09570000       0.00420000
C       -0.03500000       1.12340000       0.00950000
C       -1.24550000       1.95140000       0.03080000
C       -1.17080000       3.29120000       0.03610000
O       -0.00780000       3.98640000       0.02280000
C        1.15020000       3.27480000       0.00320000
C        1.19850000       1.92800000      -0.00390000
C        2.30770000       4.11490000      -0.00920000
N        3.25810000       4.77360000      -0.01940000
H       -2.21240000       1.46420000       0.04230000
H       -2.01690000       3.96630000       0.05130000
H        2.15480000       1.42080000      -0.01970000
