21
Properties=species:S:1:pos:R:3 gdb_68185=T pbc="F F F"
C       -0.12880000       1.52950000       0.00010000
C        0.05350000       0.01280000       0.00680000
O       -1.22620000      -0.61850000      -0.02580000
C        1.01670000      -0.53680000      -1.10580000
C        2.02250000      -1.29260000      -0.20950000
O        3.03100000      -2.03440000      -0.82150000
C        1.09590000      -2.00630000       0.80390000
C        0.79880000      -0.54220000       1.24220000
C        2.29030000      -0.24400000       0.91770000
H        0.82130000       2.06260000       0.08990000
H       -0.59850000       1.85590000      -0.93650000
H       -0.77780000       1.83170000       0.82790000
H       -1.70390000      -0.28060000      -0.79060000
H        0.48880000      -1.20770000      -1.78890000
H        1.49690000       0.25810000      -1.68880000
H        3.46180000      -1.47820000      -1.47940000
H        0.26740000      -2.60270000       0.42150000
H        1.66740000      -2.55810000       1.55280000
H        0.35970000      -0.30980000       2.21140000
H        2.96500000      -0.63420000       1.68220000
H        2.58340000       0.77170000       0.63620000
