17
Properties=species:S:1:pos:R:3 gdb_107530=T pbc="F F F"
O        0.10490000       1.40710000       0.21370000
C        0.05190000       0.01570000      -0.06630000
C       -1.34120000      -0.52940000      -0.02090000
C       -2.02930000      -1.03900000       1.23720000
C       -1.90420000      -1.92870000       0.04140000
O       -2.93600000      -1.65510000      -0.90880000
C       -2.41830000      -0.29790000      -1.09710000
C       -3.40780000       0.74660000      -0.90470000
C       -4.22220000       1.61590000      -0.74530000
H       -0.35290000       1.55260000       1.04860000
H        0.47540000      -0.09460000      -1.07120000
H        0.69080000      -0.56300000       0.62090000
H       -1.35000000      -1.25980000       2.05600000
H       -3.00780000      -0.66780000       1.52700000
H       -1.43870000      -2.90690000       0.01700000
H       -1.96940000      -0.22260000      -2.09540000
H       -4.94180000       2.38550000      -0.60960000
