16
Properties=species:S:1:pos:R:3 gdb_25981=T pbc="F F F"
N        0.06860000       1.34290000       0.08070000
C       -0.38920000       0.10600000      -0.35150000
O       -0.81620000      -0.07180000      -1.48420000
N       -0.27440000      -0.89060000       0.58570000
C       -0.62270000      -2.23330000       0.38900000
C       -0.54450000      -3.29120000       1.26880000
C       -1.02710000      -4.43440000       0.56600000
C       -1.37810000      -4.03110000      -0.69880000
N       -1.12590000      -2.68130000      -0.79700000
H       -0.20200000       2.08740000      -0.54400000
H       -0.03320000       1.57340000       1.05780000
H        0.20870000      -0.69220000       1.44610000
H       -0.18920000      -3.24990000       2.28700000
H       -1.10540000      -5.43730000       0.95610000
H       -1.78310000      -4.57650000      -1.53500000
H       -1.25420000      -2.05900000      -1.58120000
