21
Properties=species:S:1:pos:R:3 gdb_108331=T pbc="F F F"
C        0.03020000       1.56740000       0.01020000
C        0.00090000       0.03330000      -0.00490000
C       -1.40340000      -0.53680000       0.01420000
C       -2.27740000      -0.40260000       1.30260000
C       -2.52730000      -1.94340000       1.29940000
C       -1.67560000      -2.08240000       0.00490000
C       -2.41800000      -1.90380000      -1.33990000
O       -3.49720000      -0.98160000      -1.13840000
C       -2.18260000      -0.44960000      -1.33090000
H        1.05850000       1.94140000       0.00350000
H       -0.48160000       1.98720000      -0.86230000
H       -0.46360000       1.96300000       0.90370000
H        0.52900000      -0.33670000      -0.89460000
H        0.55440000      -0.35260000       0.86080000
H       -1.70640000      -0.05090000       2.16660000
H       -3.17260000       0.21190000       1.19510000
H       -2.08990000      -2.46100000       2.15610000
H       -3.57100000      -2.24440000       1.19770000
H       -0.84960000      -2.79520000      -0.01440000
H       -2.52820000      -2.60610000      -2.15940000
H       -2.05920000       0.26310000      -2.14070000
