22
Properties=species:S:1:pos:R:3 gdb_114816=T pbc="F F F"
C        0.11480000       1.58800000       0.08340000
C       -0.20790000       0.09650000      -0.01210000
N        0.49710000      -0.51870000      -1.11790000
C        0.03000000      -0.23430000      -2.49440000
C        0.21300000      -1.71760000      -2.85870000
O        1.56420000      -2.08760000      -3.18240000
C        1.84200000      -2.48870000      -1.81660000
C        0.45450000      -1.99370000      -1.34920000
C       -0.38400000      -2.86400000      -0.44390000
H        1.19060000       1.74010000       0.20770000
H       -0.19810000       2.11770000      -0.82260000
H       -0.40790000       2.04240000       0.93090000
H        0.10250000      -0.40240000       0.91320000
H       -1.30720000      -0.02750000      -0.08760000
H       -1.03030000       0.06810000      -2.53700000
H        0.63400000       0.48510000      -3.05660000
H       -0.52560000      -2.20180000      -3.50190000
H        1.99680000      -3.57460000      -1.74970000
H        2.69730000      -1.95650000      -1.38810000
H        0.03870000      -2.90790000       0.56650000
H       -1.41160000      -2.49760000      -0.36130000
H       -0.41900000      -3.88690000      -0.83130000
