21
Properties=species:S:1:pos:R:3 gdb_88000=T pbc="F F F"
C       -0.01250000       1.42530000      -0.25440000
C        0.14560000      -0.06980000      -0.08460000
C        1.51660000      -0.69560000       0.00950000
C        0.62300000      -0.64310000       1.21970000
C        0.92550000       0.05240000       2.56000000
C        0.66250000      -1.30590000       3.28940000
C        0.13210000      -1.86710000       1.96440000
C       -1.02870000      -2.72310000       1.71260000
O        0.31400000      -3.20040000       1.52190000
H        0.76060000       1.96890000       0.29800000
H        0.06820000       1.71390000      -1.30810000
H       -0.98610000       1.77010000       0.11200000
H       -0.60230000      -0.66370000      -0.60680000
H        1.67550000      -1.66870000      -0.44360000
H        2.37980000      -0.03610000      -0.00860000
H        1.93050000       0.46440000       2.67490000
H        0.19780000       0.82550000       2.82270000
H        1.58240000      -1.80810000       3.59900000
H       -0.03340000      -1.28760000       4.13110000
H       -1.56700000      -3.16760000       2.54950000
H       -1.61250000      -2.59900000       0.80110000
