15
Properties=species:S:1:pos:R:3 gdb_15859=T pbc="F F F"
C       -0.17530000       1.53110000       0.09780000
C        0.02660000       0.02350000       0.10560000
N        1.07940000      -0.46870000      -0.80420000
C        1.84310000      -1.09530000       0.13850000
O        2.86340000      -1.72500000       0.10430000
C        0.82930000      -0.66670000       1.25650000
C        1.42210000       0.09110000       2.41290000
O        1.16690000       1.22580000       2.72690000
H        0.76450000       2.06270000       0.25290000
H       -0.59920000       1.83860000      -0.86490000
H       -0.86710000       1.83080000       0.88810000
H       -0.93020000      -0.48300000      -0.06940000
H        1.17430000      -0.43120000      -1.80880000
H        0.33870000      -1.56070000       1.65930000
H        2.15680000      -0.51510000       2.98750000
