18
Properties=species:S:1:pos:R:3 gdb_73175=T pbc="F F F"
C       -0.36030000       1.33170000      -0.14640000
C        0.03750000      -0.10560000       0.05350000
O       -1.08140000      -0.96790000       0.32050000
C       -0.45130000      -1.51420000       1.50660000
C        0.84060000      -0.72690000       1.24090000
C        1.80150000      -1.41890000       0.24230000
C        1.04950000      -0.75180000      -0.96430000
C        0.49380000      -1.62340000      -1.98240000
N        0.06340000      -2.32600000      -2.79350000
H        0.51800000       1.97120000      -0.27990000
H       -0.99200000       1.42330000      -1.03700000
H       -0.93130000       1.69420000       0.71310000
H       -0.99540000      -1.21950000       2.41200000
H       -0.37550000      -2.60730000       1.47070000
H        1.27460000      -0.15040000       2.05630000
H        2.84050000      -1.09440000       0.31530000
H        1.77390000      -2.51020000       0.25400000
H        1.66540000       0.01190000      -1.44810000
