16
Properties=species:S:1:pos:R:3 gdb_64853=T pbc="F F F"
C       -0.36650000       1.63580000       0.00550000
C        0.07850000       0.18130000      -0.08180000
C        0.91310000      -0.21100000      -1.33890000
C        2.06600000      -0.45140000      -0.33580000
O        1.24860000      -0.05240000       0.77710000
C        2.54780000      -1.83240000      -0.22600000
N        2.93930000      -2.91750000      -0.16000000
C       -1.00640000      -0.73770000       0.23720000
C       -1.90920000      -1.49020000       0.48740000
H        0.46780000       2.29990000      -0.23680000
H       -1.18880000       1.82410000      -0.69120000
H       -0.71230000       1.86000000       1.01780000
H        0.56510000      -1.09400000      -1.87080000
H        1.08800000       0.60720000      -2.03770000
H        2.93300000       0.20860000      -0.45420000
H       -2.69890000      -2.16330000       0.71510000
