22
Properties=species:S:1:pos:R:3 gdb_118432=T pbc="F F F"
C       -0.02390000       1.65140000       0.08190000
C        0.00800000       0.12560000      -0.03630000
C       -1.38600000      -0.50340000       0.05620000
C       -1.36570000      -2.03650000      -0.02280000
O       -0.62290000      -2.50350000       1.07050000
C       -0.36680000      -3.89350000       1.06070000
C       -2.81260000      -2.58070000      -0.00560000
N       -3.42770000      -2.57810000      -1.22590000
O       -3.36000000      -2.96640000       1.00620000
H        0.98270000       2.07570000       0.01520000
H       -0.62810000       2.10230000      -0.71380000
H       -0.45420000       1.96460000       1.03950000
H        0.47120000      -0.16060000      -0.99050000
H        0.63680000      -0.30030000       0.75130000
H       -1.86210000      -0.22870000       1.00500000
H       -2.02790000      -0.11520000      -0.74460000
H       -0.88550000      -2.34990000      -0.96960000
H        0.27200000      -4.10310000       1.92170000
H       -1.29080000      -4.47620000       1.15110000
H        0.16480000      -4.19670000       0.14450000
H       -2.98370000      -2.21890000      -2.05270000
H       -4.40310000      -2.82430000      -1.27050000
