19
Properties=species:S:1:pos:R:3 gdb_1292=T pbc="F F F"
C       -0.24510000       1.52390000       0.07650000
C       -0.08970000       0.01230000      -0.04500000
C        0.83170000      -0.56200000       1.03430000
O       -1.40370000      -0.53560000       0.03540000
C       -1.54320000      -1.87840000      -0.39360000
C       -3.03660000      -2.12490000      -0.55520000
O       -3.60820000      -1.22420000      -1.48170000
H        0.72530000       2.02040000      -0.01490000
H       -0.90600000       1.90610000      -0.70630000
H       -0.67680000       1.78480000       1.04800000
H        0.32960000      -0.22920000      -1.03640000
H        0.42460000      -0.35540000       2.02940000
H        0.95350000      -1.64390000       0.93010000
H        1.82580000      -0.10890000       0.96610000
H       -1.03310000      -2.02290000      -1.35940000
H       -1.11570000      -2.58700000       0.33220000
H       -3.20560000      -3.13830000      -0.93430000
H       -3.52030000      -2.04860000       0.43210000
H       -3.27990000      -0.35460000      -1.22250000
