22
Properties=species:S:1:pos:R:3 gdb_58531=T pbc="F F F"
C        0.00790000       1.57840000      -0.04150000
C       -0.00010000       0.03930000      -0.01660000
C        0.58960000      -0.49150000      -1.33440000
C        0.72110000      -0.51180000       1.23660000
C        0.20260000       0.08260000       2.54840000
C        0.90280000      -2.07040000       1.30290000
N        2.34600000      -1.84200000       1.21200000
C        2.27620000      -0.47460000       1.14500000
O        3.11300000       0.38680000       1.05130000
H        1.03360000       1.95670000       0.01340000
H       -0.44030000       1.94280000      -0.97120000
H       -0.55950000       2.00990000       0.78680000
H       -1.04540000      -0.29770000       0.04950000
H        1.61930000      -0.14390000      -1.46800000
H        0.59110000      -1.58370000      -1.39120000
H        0.00300000      -0.12260000      -2.18130000
H       -0.88510000      -0.02700000       2.62700000
H        0.65640000      -0.41940000       3.40870000
H        0.44560000       1.14480000       2.62320000
H        0.58010000      -2.52330000       2.24630000
H        0.48460000      -2.63780000       0.46690000
H        3.13360000      -2.47320000       1.21390000
