20
Properties=species:S:1:pos:R:3 gdb_10532=T pbc="F F F"
O       -2.84270000       0.62390000      -2.17190000
C       -2.48350000      -0.71260000      -1.84880000
C       -1.89250000      -0.70050000      -0.44170000
C       -1.56190000      -2.07940000       0.10680000
C       -0.46110000      -2.83070000      -0.60900000
O        0.73180000      -2.05960000      -0.53620000
C       -1.65740000      -2.28500000       1.59910000
C       -2.68210000      -2.91320000       0.68710000
H       -3.17940000       0.63470000      -3.07240000
H       -3.36030000      -1.37990000      -1.87890000
H       -1.74820000      -1.10540000      -2.56840000
H       -0.98940000      -0.08220000      -0.44370000
H       -2.61660000      -0.20870000       0.21780000
H       -0.32660000      -3.81620000      -0.13450000
H       -0.74400000      -3.01410000      -1.65810000
H        1.39350000      -2.47590000      -1.09610000
H       -0.92630000      -2.93270000       2.07080000
H       -1.96340000      -1.44220000       2.20920000
H       -3.68180000      -2.49210000       0.67390000
H       -2.65470000      -3.98940000       0.54860000
