19
Properties=species:S:1:pos:R:3 gdb_109515=T pbc="F F F"
C        0.09170000       1.10460000      -0.46640000
O       -0.09660000       0.05510000       0.47020000
C       -1.30250000      -0.59810000       0.31620000
C       -1.44250000      -1.73360000      -0.72320000
C       -0.35650000      -2.09600000      -1.57710000
C        0.54910000      -2.41100000      -2.30590000
C       -1.39960000      -1.99870000       0.79910000
C       -0.20720000      -2.68650000       1.41520000
O       -2.63550000      -2.28960000       1.39030000
H        1.06350000       1.55200000      -0.24820000
H        0.08720000       0.72610000      -1.49560000
H       -0.68820000       1.87330000      -0.36310000
H       -2.19280000       0.02030000       0.43970000
H       -2.43560000      -1.81920000      -1.15520000
H        1.34790000      -2.68970000      -2.94690000
H        0.72180000      -2.34320000       0.95990000
H       -0.17480000      -2.47270000       2.48760000
H       -0.27660000      -3.77210000       1.27920000
H       -2.80090000      -3.23290000       1.27780000
