11
Properties=species:S:1:pos:R:3 gdb_131435=T pbc="F F F"
O        0.17350000       1.28110000      -0.04190000
C        0.05280000      -0.04000000      -0.06490000
N       -0.16040000      -0.68380000      -1.18640000
O       -0.22580000      -2.03540000      -0.72930000
C       -0.03000000      -1.98570000       0.58460000
O       -0.05770000      -3.11230000       1.29650000
C        0.13730000      -4.33980000       0.66120000
O        0.02190000      -5.34460000       1.27400000
N        0.14710000      -0.80190000       1.07600000
H        0.32540000       1.54360000       0.87480000
H        0.40410000      -4.23030000      -0.39730000
