19
Properties=species:S:1:pos:R:3 gdb_102243=T pbc="F F F"
C       -0.17950000       1.64170000      -0.18470000
C        0.12700000       0.15160000      -0.02440000
C        0.72920000      -0.49790000      -1.29100000
C        1.09940000      -1.98720000      -1.06560000
C        1.94830000      -2.52950000      -2.21630000
N        1.25790000      -3.20340000      -3.18390000
O        3.15100000      -2.36170000      -2.25150000
C       -0.19480000      -0.38640000      -2.42610000
N       -0.94020000      -0.34180000      -3.30920000
H        0.72470000       2.20780000      -0.43280000
H       -0.91270000       1.81440000      -0.97840000
H       -0.58640000       2.05230000       0.74360000
H        0.84710000       0.00100000       0.78740000
H       -0.78220000      -0.39370000       0.25430000
H        1.64900000       0.03730000      -1.55890000
H        1.71120000      -2.05130000      -0.16330000
H        0.18940000      -2.57580000      -0.91320000
H        0.25850000      -3.10440000      -3.26160000
H        1.76270000      -3.41930000      -4.03020000
