18
Properties=species:S:1:pos:R:3 gdb_57286=T pbc="F F F"
C       -0.00520000       1.51740000       0.14050000
C        0.00760000      -0.00980000       0.00520000
O        0.69670000      -0.51760000       1.13710000
C       -1.39380000      -0.51480000       0.01440000
N       -2.47600000      -0.92020000       0.00420000
C        0.66230000      -0.45870000      -1.32130000
C        2.20320000      -0.51820000      -1.23670000
O        2.14600000      -1.94320000      -0.97210000
C        0.78200000      -1.98990000      -1.46530000
H        1.01670000       1.89610000       0.05460000
H       -0.62660000       1.97510000      -0.63310000
H       -0.39700000       1.79590000       1.12090000
H        1.13400000      -1.34630000       0.89540000
H        0.21840000       0.08210000      -2.15830000
H        2.70360000      -0.30740000      -2.18990000
H        2.69150000       0.02920000      -0.42690000
H        0.13230000      -2.61750000      -0.84660000
H        0.74060000      -2.34090000      -2.50370000
