19
Properties=species:S:1:pos:R:3 gdb_38612=T pbc="F F F"
C       -0.05900000       1.45070000      -0.10750000
C        1.30360000       0.79670000       0.00610000
C        2.18940000       0.32400000      -1.14480000
C        1.48270000      -0.92670000      -1.65680000
C        0.88200000      -2.01190000      -0.73940000
O        0.96110000      -2.01150000       0.67530000
C       -0.00990000      -1.05080000       1.15330000
C        0.03610000      -0.03690000       0.03400000
C        0.02920000      -0.89380000      -1.22830000
H       -0.37580000       2.05370000       0.73790000
H       -0.40570000       1.82360000      -1.06720000
H        1.79770000       0.95220000       0.95970000
H        2.28220000       1.05640000      -1.95730000
H        3.20370000       0.12260000      -0.78260000
H        1.73980000      -1.29460000      -2.64740000
H        0.83280000      -3.01320000      -1.15510000
H       -0.98670000      -1.54020000       1.27900000
H        0.33120000      -0.67410000       2.12110000
H       -0.83880000      -0.97560000      -1.87290000
