19
Properties=species:S:1:pos:R:3 gdb_112017=T pbc="F F F"
O        0.27420000       0.27580000       1.06650000
C       -0.14310000       0.36990000      -0.29720000
C       -1.50180000      -0.31660000      -0.37770000
C       -2.13280000      -0.41180000      -1.75120000
C       -2.54290000      -1.65490000      -2.02270000
C       -2.17640000      -2.61160000      -0.93740000
C       -0.66890000      -2.77180000      -0.73120000
C       -1.45270000      -1.77630000       0.08850000
O       -1.62230000      -2.01070000       1.44960000
H        1.18440000       0.57780000       1.13180000
H       -0.21880000       1.42190000      -0.61160000
H        0.57470000      -0.13130000      -0.96210000
H       -2.17070000       0.22570000       0.30790000
H       -2.24600000       0.44560000      -2.40540000
H       -3.05050000      -1.96110000      -2.93070000
H       -2.83040000      -3.43000000      -0.65990000
H       -0.35080000      -3.65190000      -0.18250000
H       -0.00750000      -2.45150000      -1.53010000
H       -0.90410000      -1.52980000       1.88250000
