20
Properties=species:S:1:pos:R:3 gdb_75258=T pbc="F F F"
C       -0.03970000       1.53370000       0.00650000
C       -0.00640000       0.03790000      -0.04620000
C       -0.15760000      -0.74520000      -1.13100000
C       -0.01300000      -2.23690000      -0.83610000
C        0.14010000      -2.24390000       0.67650000
C        1.31790000      -2.61410000       1.59980000
C        1.34510000      -1.12430000       2.11080000
C        0.17320000      -0.82940000       1.15400000
N       -0.94060000      -1.73740000       1.53830000
H        0.89510000       1.93130000       0.42120000
H       -0.18040000       1.97030000      -0.98580000
H       -0.84480000       1.89080000       0.66020000
H       -0.41160000      -0.37520000      -2.12040000
H       -0.86680000      -2.82210000      -1.20250000
H        0.87560000      -2.65690000      -1.32590000
H        1.10850000      -3.38620000       2.34400000
H        2.22140000      -2.87890000       1.04540000
H        1.14000000      -0.96390000       3.17160000
H        2.26540000      -0.60490000       1.83510000
H       -1.73890000      -1.50430000       0.95030000
