20
Properties=species:S:1:pos:R:3 gdb_101110=T pbc="F F F"
O        0.09240000       1.42580000      -0.09620000
C        0.10750000       0.02280000       0.04340000
C       -1.31810000      -0.53740000       0.05890000
O       -2.02840000      -0.04120000      -1.08430000
C       -1.37540000      -2.04500000       0.12950000
C       -0.81860000      -3.01050000       1.20460000
N       -1.47010000      -3.98830000       0.20950000
C       -2.61930000      -2.96260000       0.17170000
C       -0.82700000      -3.10310000      -0.87020000
H       -0.60280000       1.60900000      -0.74200000
H        0.67500000      -0.45860000      -0.77450000
H        0.62220000      -0.21290000       0.98130000
H       -1.84900000      -0.10980000       0.91810000
H       -1.70230000      -0.51650000      -1.85820000
H        0.26530000      -3.13030000       1.28490000
H       -1.29370000      -3.00990000       2.18950000
H       -3.22990000      -2.95870000       1.07880000
H       -3.23890000      -3.03270000      -0.72580000
H       -1.31120000      -3.19730000      -1.84730000
H        0.25590000      -3.23180000      -0.95000000
