14
Properties=species:S:1:pos:R:3 gdb_18075=T pbc="F F F"
O        0.38550000       0.15290000      -0.20440000
C        0.54080000       1.32270000      -0.37260000
O        0.80580000       2.16740000       0.65760000
C        0.96580000       3.52960000       0.34690000
C        2.24690000       4.22700000       0.70700000
C        3.41240000       3.29640000       0.38290000
O        2.92750000       3.09110000      -0.97690000
C        1.86600000       4.00840000      -0.75400000
H        0.48110000       1.84120000      -1.34440000
H        0.06650000       4.11900000       0.50680000
H        2.28610000       5.11580000       1.32140000
H        4.38200000       3.80170000       0.36280000
H        3.47520000       2.36090000       0.94620000
H        1.57880000       4.66810000      -1.56510000
