20
Properties=species:S:1:pos:R:3 gdb_105504=T pbc="F F F"
N       -0.15710000       0.92480000      -0.08840000
H        0.06390000      -0.06350000      -0.03370000
H        1.07090000       2.16090000      -0.16350000
H       -0.87050000       1.03430000      -0.80230000
C       -0.63680000       1.43280000       1.21250000
C       -0.67910000       2.96640000       1.23800000
C       -1.83310000       3.56460000       0.34850000
C       -2.70810000       3.71730000       1.61940000
C       -1.43870000       3.50510000       2.48470000
C        0.68500000       3.63040000       0.98930000
O        1.50150000       3.00680000       0.13230000
O        0.99040000       4.67890000       1.50090000
H       -1.62920000       1.04030000       1.47730000
H        0.06160000       1.07960000       1.97990000
H       -1.54710000       4.52860000      -0.07720000
H       -2.21980000       2.93330000      -0.45810000
H       -3.23450000       4.66610000       1.73960000
H       -3.43590000       2.90840000       1.72630000
H       -1.51710000       2.82370000       3.33670000
H       -0.98740000       4.44160000       2.81300000
