12
Properties=species:S:1:pos:R:3 gdb_24885=T pbc="F F F"
N        0.03290000       1.30890000       0.00940000
C       -0.01930000       0.04910000       0.00320000
O        1.17020000      -0.72140000      -0.00710000
C        1.09710000      -2.06710000      -0.01360000
N        0.04060000      -2.78630000      -0.01160000
C       -1.16280000      -2.09030000      -0.00150000
C       -1.23060000      -0.74520000       0.00570000
C        2.40080000      -2.67830000      -0.02370000
N        3.44980000      -3.16270000      -0.03180000
H        0.99320000       1.65180000       0.00590000
H       -2.05130000      -2.71100000       0.00010000
H       -2.16830000      -0.20600000       0.01350000
