15
Properties=species:S:1:pos:R:3 gdb_20374=T pbc="F F F"
C       -0.12170000       1.44770000      -0.16020000
C        1.28740000       0.95260000       0.07550000
C        0.13870000      -0.01800000       0.05410000
N       -0.29400000      -0.67670000       1.25660000
C       -0.34580000      -0.21060000       2.54150000
N       -0.80410000      -1.12880000       3.35550000
N       -1.07030000      -2.24910000       2.59800000
C       -0.76040000      -1.95760000       1.36040000
H       -0.60980000       1.98990000       0.64170000
H       -0.40340000       1.77080000      -1.15580000
H        1.98150000       0.93280000      -0.75680000
H        1.74490000       1.16240000       1.03570000
H        0.04910000      -0.67920000      -0.79910000
H       -0.04470000       0.78470000       2.82750000
H       -0.84910000      -2.61680000       0.51050000
