13
Properties=species:S:1:pos:R:3 gdb_4614=T pbc="F F F"
O       -0.07280000       1.40790000       0.01110000
C        0.03500000       0.04420000       0.00290000
C        1.20830000      -0.64370000      -0.00790000
N        1.19630000      -2.01610000      -0.01540000
C        0.05570000      -2.83050000      -0.01310000
O        0.15840000      -4.04810000      -0.02040000
C       -1.17750000      -2.05840000      -0.00150000
C       -1.18220000      -0.69960000       0.00610000
H        0.80570000       1.80140000       0.00810000
H        2.18260000      -0.16870000      -0.01100000
H        2.06920000      -2.52430000      -0.02340000
H       -2.09670000      -2.63070000       0.00090000
H       -2.11310000      -0.14120000       0.01470000
