20
Properties=species:S:1:pos:R:3 gdb_117385=T pbc="F F F"
C       -0.28710000       1.06170000      -1.16360000
O        0.11200000      -0.28370000      -1.30130000
C        0.72630000      -0.80560000      -0.14380000
C        1.14040000      -2.26400000      -0.33900000
O        1.68890000      -2.87380000       0.56310000
N        0.84360000      -2.77470000      -1.55830000
C        1.15110000      -4.12240000      -1.92620000
C        0.25940000      -4.87220000      -2.87690000
C        1.64710000      -4.44370000      -3.31050000
H       -1.02060000       1.18420000      -0.35240000
H        0.57120000       1.71820000      -0.95570000
H       -0.74640000       1.36500000      -2.10710000
H        1.62960000      -0.23540000       0.12270000
H        0.04910000      -0.76420000       0.72320000
H        0.38520000      -2.15640000      -2.21070000
H        1.58140000      -4.65280000      -1.08650000
H        0.06930000      -5.92250000      -2.68560000
H       -0.58440000      -4.33880000      -3.30290000
H        1.71890000      -3.62670000      -4.02120000
H        2.41940000      -5.19720000      -3.41900000
