20
Properties=species:S:1:pos:R:3 gdb_18477=T pbc="F F F"
C       -0.37560000       1.69340000       0.24350000
C       -0.16030000       0.19470000      -0.00230000
C        0.49340000      -0.47950000       1.18820000
C       -0.26050000      -1.18910000       2.26700000
O       -1.37880000      -1.90940000       1.73430000
C       -0.47300000      -2.83130000       1.05190000
C       -0.84810000      -3.15560000      -0.38060000
C        0.73230000      -1.96660000       1.42460000
H        0.57540000       2.20980000       0.41690000
H       -0.86060000       2.16910000      -0.61440000
H       -1.00860000       1.85940000       1.12140000
H       -1.12520000      -0.28110000      -0.19590000
H        0.45580000       0.05310000      -0.89920000
H        1.33100000       0.08480000       1.60070000
H       -0.28720000      -0.93110000       3.31990000
H       -0.44120000      -3.76140000       1.63720000
H       -1.85270000      -3.59010000      -0.41500000
H       -0.82760000      -2.27720000      -1.02650000
H       -0.14830000      -3.89660000      -0.78260000
H        1.70920000      -2.35440000       1.68250000
