20
Properties=species:S:1:pos:R:3 gdb_61307=T pbc="F F F"
C       -0.08640000       1.49070000       0.04130000
N       -0.01480000       0.03290000       0.00820000
C        0.70590000      -0.50590000       1.15270000
C        2.11750000      -0.10170000       1.15930000
N        3.22760000       0.21610000       1.18350000
C       -1.31980000      -0.60790000      -0.13490000
C       -1.98960000      -0.27860000      -1.44910000
C       -3.45250000      -0.46980000      -1.59640000
N       -2.88130000       0.88710000      -1.58730000
H        0.92260000       1.90590000       0.10480000
H       -0.54930000       1.85860000      -0.87570000
H       -0.66950000       1.86780000       0.90370000
H        0.26690000      -0.20900000       2.12610000
H        0.67120000      -1.60030000       1.11300000
H       -1.16200000      -1.69270000      -0.08200000
H       -2.00880000      -0.34510000       0.69590000
H       -1.35540000      -0.44030000      -2.31770000
H       -3.86640000      -0.79040000      -2.54770000
H       -4.01140000      -0.80420000      -0.72530000
H       -3.03470000       1.31090000      -0.67450000
