19
Properties=species:S:1:pos:R:3 gdb_98975=T pbc="F F F"
C        0.04150000       0.67220000       0.27360000
C       -0.72940000       0.07520000      -0.91440000
C        0.16540000      -0.30830000      -2.06190000
N        0.14670000       0.25640000      -3.18410000
O        0.98880000      -1.36900000      -1.63960000
C        1.95410000      -1.92930000      -2.43980000
O        2.21420000      -1.60500000      -3.57740000
N        2.57030000      -2.91180000      -1.73860000
C        3.64010000      -3.71280000      -2.29650000
H        0.77260000      -0.03920000       0.66660000
H        0.57510000       1.57950000      -0.02530000
H       -0.64670000       0.93460000       1.08210000
H       -1.27810000      -0.81530000      -0.58510000
H       -1.45270000       0.79300000      -1.30560000
H        0.83880000      -0.14750000      -3.81480000
H        2.24880000      -3.07680000      -0.79960000
H        4.56050000      -3.60840000      -1.71170000
H        3.36590000      -4.77280000      -2.33480000
H        3.82340000      -3.35820000      -3.31100000
