19
Properties=species:S:1:pos:R:3 gdb_87867=T pbc="F F F"
O       -0.60740000       1.36120000      -0.49270000
C       -0.31310000       0.01030000      -0.29710000
C       -0.14990000      -0.51880000       1.10730000
C       -1.38860000      -0.85020000       0.30410000
C       -2.75220000      -0.23360000       0.63240000
C       -3.70960000      -1.00170000      -0.25910000
O       -3.28840000      -1.07710000      -1.62790000
C       -3.04480000      -2.20450000      -0.77760000
C       -1.62640000      -2.26230000      -0.24340000
H        0.16900000       1.87420000      -0.24650000
H        0.29390000      -0.44060000      -1.08310000
H        0.57770000      -1.30310000       1.29290000
H       -0.26230000       0.19850000       1.91480000
H       -3.02950000      -0.39860000       1.68180000
H       -2.76260000       0.84220000       0.44250000
H       -4.78400000      -0.94040000      -0.10460000
H       -3.57970000      -3.11420000      -1.03950000
H       -0.89640000      -2.54430000      -1.00990000
H       -1.57310000      -3.01500000       0.55460000
