21
Properties=species:S:1:pos:R:3 gdb_59104=T pbc="F F F"
C       -0.03990000       1.53170000      -0.14210000
C        0.00240000       0.02100000       0.03680000
N        0.90100000      -0.66960000      -0.90040000
C        1.80280000      -1.10640000       0.02800000
O        2.85280000      -1.68920000      -0.06170000
C        0.91060000      -0.56800000       1.18610000
N        1.51760000       0.35420000       2.11810000
C        0.56910000       0.78020000       3.13870000
C        2.72920000      -0.18690000       2.73360000
H        0.94940000       1.96650000       0.01530000
H       -0.38180000       1.78110000      -1.15260000
H       -0.73870000       1.99310000       0.56190000
H       -1.00910000      -0.40140000       0.03000000
H        0.92140000      -0.70460000      -1.90950000
H        0.40490000      -1.41410000       1.69000000
H        0.23840000      -0.05440000       3.78650000
H        1.03340000       1.53950000       3.77550000
H       -0.31830000       1.22180000       2.67810000
H        3.42680000      -0.51820000       1.96470000
H        3.20160000       0.59610000       3.33500000
H        2.51910000      -1.04580000       3.39830000
