18
Properties=species:S:1:pos:R:3 gdb_119130=T pbc="F F F"
C       -0.26540000       1.36210000       0.19510000
O       -0.29550000      -0.05020000       0.20620000
C        0.77730000      -0.61780000       0.94170000
C        0.64810000      -2.12310000       0.98470000
C        1.15140000      -2.83380000       2.17110000
O       -0.24520000      -2.62760000       1.98960000
C        0.60670000      -2.94310000      -0.30890000
N        0.32340000      -2.22920000      -1.43150000
O        0.83300000      -4.13710000      -0.30500000
H        0.65780000       1.74580000      -0.26500000
H       -1.12400000       1.70100000      -0.38830000
H       -0.34160000       1.76890000       1.21380000
H        1.74110000      -0.33640000       0.48560000
H        0.76400000      -0.23810000       1.97340000
H        1.49000000      -3.85670000       2.03480000
H        1.61010000      -2.26310000       2.97790000
H       -0.08780000      -1.31070000      -1.33800000
H        0.17860000      -2.75650000      -2.27820000
