13
Properties=species:S:1:pos:R:3 gdb_44717=T pbc="F F F"
O       -0.11980000       0.21680000       0.52630000
C       -0.01040000       1.31770000       0.10610000
O       -0.99960000       2.14950000      -0.37470000
C       -0.05290000       3.22540000      -0.68330000
C       -0.14190000       4.40200000       0.26440000
C        0.88240000       4.10720000       1.36470000
O        1.10310000       4.72860000       2.35500000
O        1.59420000       2.97140000       1.04470000
C        1.10590000       2.36200000      -0.13520000
H       -0.07800000       3.45710000      -1.74660000
H        0.12440000       5.34790000      -0.21540000
H       -1.13590000       4.51640000       0.70150000
H        1.93560000       2.06330000      -0.77500000
