17
Properties=species:S:1:pos:R:3 gdb_79991=T pbc="F F F"
O        0.15420000       1.47480000      -0.12360000
C        0.04910000       0.09640000      -0.01060000
C        0.11680000      -0.62250000       1.39250000
C       -1.07950000       0.00310000       2.09830000
C       -2.04090000      -0.00290000       1.16150000
C       -1.35910000      -0.63090000      -0.04480000
O       -2.13470000      -0.80200000      -1.17810000
C       -0.63130000      -1.82160000       0.67620000
O        0.09660000      -2.59320000      -0.24670000
H       -0.48970000       1.85610000       0.48850000
H        0.75120000      -0.33980000      -0.72230000
H        1.05250000      -0.75940000       1.93100000
H       -1.12760000       0.32570000       3.12880000
H       -3.07510000       0.30750000       1.20400000
H       -1.63150000      -1.35370000      -1.78790000
H       -1.25970000      -2.43440000       1.33220000
H        0.49230000      -3.33970000       0.21230000
