19
Properties=species:S:1:pos:R:3 gdb_19533=T pbc="F F F"
O        0.20080000       0.98380000      -1.03810000
C        0.20380000      -0.12290000      -0.14500000
C       -1.23310000      -0.62040000      -0.08700000
C       -1.65690000      -2.04210000      -0.20680000
C       -0.62540000      -3.14580000      -0.01860000
C        0.06890000      -2.81530000       1.32520000
C       -0.93960000      -1.89090000       2.05310000
N       -1.85730000      -1.30720000       1.06060000
H        1.10210000       1.31200000      -1.10740000
H        0.88940000      -0.90450000      -0.50180000
H        0.54460000       0.18390000       0.85740000
H       -1.89650000       0.13080000      -0.51060000
H       -2.55310000      -2.28440000      -0.77270000
H       -1.14370000      -4.10870000       0.03660000
H        0.08380000      -3.21430000      -0.85020000
H        0.28930000      -3.71460000       1.90620000
H        1.02220000      -2.30660000       1.16190000
H       -1.55910000      -2.46800000       2.74800000
H       -0.45160000      -1.10400000       2.63730000
