17
Properties=species:S:1:pos:R:3 gdb_7320=T pbc="F F F"
C       -0.18710000       1.63570000       0.29390000
C        0.23420000       0.17940000       0.05050000
N        0.83270000      -0.41640000       1.23440000
C        0.08400000      -1.02830000       2.07250000
N       -1.25780000      -1.26810000       2.04130000
C        0.72760000      -1.64650000       3.31220000
N        2.06710000      -1.51780000       3.33800000
O        0.04610000      -2.19080000       4.16770000
H        0.66850000       2.22500000       0.63570000
H       -0.57460000       2.08660000      -0.62520000
H       -0.96460000       1.70430000       1.06210000
H       -0.62620000      -0.40270000      -0.31930000
H        0.98440000       0.15800000      -0.74790000
H       -1.86760000      -0.71910000       1.46320000
H       -1.62920000      -1.67680000       2.88710000
H        2.50250000      -1.01860000       2.57690000
H        2.58960000      -1.86180000       4.12430000
