18
Properties=species:S:1:pos:R:3 gdb_119519=T pbc="F F F"
O       -0.21210000       1.55510000       0.02790000
C        0.03540000       0.15990000      -0.01420000
C       -1.31530000      -0.54380000       0.10060000
C       -1.21200000      -2.03340000       0.02540000
O       -2.22450000      -2.83920000       0.62850000
C       -0.86440000      -3.08100000       0.99290000
C       -0.17740000      -3.92530000      -0.13980000
N       -1.19850000      -4.20740000      -1.17610000
C       -0.53440000      -2.88320000      -1.12620000
H        0.63080000       2.01390000      -0.03230000
H        0.53400000      -0.12690000      -0.95430000
H        0.68940000      -0.15980000       0.81240000
H       -1.78510000      -0.27060000       1.05050000
H       -1.96990000      -0.17590000      -0.69970000
H       -0.60200000      -3.04610000       2.04380000
H        0.72520000      -4.51280000      -0.03870000
H       -0.72430000      -4.73720000      -1.90890000
H        0.03060000      -2.49070000      -1.96170000
