18
Properties=species:S:1:pos:R:3 gdb_50914=T pbc="F F F"
O        0.39590000      -0.42410000      -0.09170000
C        0.25500000       0.76990000      -0.09240000
C        1.39280000       1.76760000      -0.20170000
C        0.98700000       2.97830000      -1.06080000
C        2.05410000       3.98440000      -1.10640000
C        2.93850000       4.79720000      -1.17270000
N        0.52820000       2.46220000      -2.36020000
C        0.46160000       3.35890000      -3.50750000
C        1.49600000       2.28840000      -3.44070000
H       -0.75170000       1.23300000       0.02680000
H        1.64560000       2.10990000       0.81040000
H        2.27240000       1.26610000      -0.61330000
H        0.10450000       3.44330000      -0.59890000
H        3.71350000       5.52270000      -1.21500000
H       -0.41780000       3.24310000      -4.13410000
H        0.81040000       4.38070000      -3.37760000
H        2.51930000       2.61290000      -3.26820000
H        1.38650000       1.37380000      -4.01510000
