15
Properties=species:S:1:pos:R:3 gdb_18655=T pbc="F F F"
O        0.06500000      -0.03660000      -0.15150000
C       -0.00720000       1.17320000      -0.00370000
C       -1.25660000       1.90820000       0.11100000
C       -1.29010000       3.26440000       0.06430000
N       -0.19630000       4.05730000      -0.09810000
C        1.12770000       3.52050000       0.01320000
C        1.56330000       2.82910000       1.27680000
C        1.24880000       2.00820000       0.03740000
H       -2.17750000       1.34300000       0.16700000
H       -2.23080000       3.80450000       0.12000000
H       -0.30430000       5.04580000       0.05930000
H        1.86500000       4.08730000      -0.54540000
H        2.60340000       2.91450000       1.56880000
H        0.85620000       2.78420000       2.09770000
H        2.08590000       1.55060000      -0.47710000
