15
Properties=species:S:1:pos:R:3 gdb_28691=T pbc="F F F"
N        0.21920000       1.27560000      -0.10560000
C       -0.01360000      -0.07150000       0.00790000
N       -1.11420000      -0.66710000       0.34940000
C       -0.75420000      -2.01410000       0.38100000
C        0.54570000      -2.15910000       0.04930000
C        1.48420000      -3.31000000      -0.09030000
C        1.98850000      -3.50610000      -1.45090000
C        2.40530000      -3.66210000      -2.56650000
O        1.04520000      -0.88690000      -0.19460000
H        0.93400000       1.52670000      -0.77270000
H       -0.63070000       1.81100000      -0.20370000
H       -1.46750000      -2.78250000       0.63570000
H        2.33540000      -3.18950000       0.59450000
H        0.95210000      -4.20960000       0.24010000
H        2.77030000      -3.80090000      -3.55380000
