22
Properties=species:S:1:pos:R:3 gdb_63640=T pbc="F F F"
C       -0.01350000       1.54100000      -0.37940000
C        0.00150000       0.05200000      -0.08200000
C       -1.28100000      -0.66460000      -0.45830000
C        1.29520000      -0.68980000      -0.14950000
N        0.63180000      -0.47850000       1.13990000
C        1.27260000       0.40140000       2.09140000
C        0.38150000       0.87570000       3.25970000
O        1.26900000       0.29150000       4.23390000
C        2.07080000      -0.31930000       3.20140000
H        0.94050000       2.02770000      -0.16680000
H       -0.23540000       1.70470000      -1.43940000
H       -0.79450000       2.04880000       0.19880000
H       -1.46650000      -0.59270000      -1.53600000
H       -1.22730000      -1.71970000      -0.18070000
H       -2.14010000      -0.22210000       0.05930000
H        1.33310000      -1.71760000      -0.50240000
H        2.19340000      -0.10850000      -0.35760000
H        1.84430000       1.21810000       1.63030000
H        0.27700000       1.95860000       3.39520000
H       -0.60990000       0.40530000       3.26530000
H        1.95660000      -1.41000000       3.17610000
H        3.13140000      -0.05940000       3.29840000
