16
Properties=species:S:1:pos:R:3 gdb_22771=T pbc="F F F"
C       -0.60120000       1.40480000       0.03740000
C       -0.09150000      -0.02400000      -0.00750000
O        1.09350000      -0.17410000      -0.84950000
C        1.91640000      -0.61120000       0.23820000
C        3.05880000       0.33100000       0.59390000
O        3.19670000       1.42790000       0.12590000
C        0.71760000      -0.52330000       1.16790000
N        0.44640000      -0.74630000       2.37830000
O        1.57990000      -1.20130000       3.07180000
H        0.20250000       2.08740000       0.32320000
H       -0.97240000       1.69580000      -0.94950000
H       -1.42050000       1.48780000       0.75810000
H       -0.87930000      -0.71780000      -0.32790000
H        2.31460000      -1.62830000       0.10390000
H        3.75250000      -0.08840000       1.35430000
H        1.24040000      -1.33400000       3.96400000
