15
Properties=species:S:1:pos:R:3 gdb_26766=T pbc="F F F"
C        0.18150000       1.47100000       0.02570000
C       -0.04030000       0.00460000      -0.00990000
C       -1.13660000      -0.81060000       0.03050000
C       -2.58410000      -0.46400000       0.13150000
N       -0.71490000      -2.12910000      -0.03970000
C        0.57810000      -2.05600000      -0.11720000
O        1.06810000      -0.79110000      -0.10510000
C        1.50750000      -3.12320000      -0.21030000
N        2.26940000      -3.99070000      -0.28640000
H        0.79990000       1.75840000       0.88290000
H        0.69040000       1.81790000      -0.88000000
H       -0.77430000       1.99250000       0.10260000
H       -3.13610000      -0.85050000      -0.73110000
H       -3.02750000      -0.91000000       1.02740000
H       -2.73300000       0.61720000       0.17730000
