23
Properties=species:S:1:pos:R:3 gdb_114248=T pbc="F F F"
C        0.31930000       1.38070000      -0.34570000
C        0.09150000      -0.10850000      -0.07190000
C        0.44920000      -0.49730000       1.35210000
C        0.55280000      -1.99760000       1.69480000
C        2.02400000      -1.67810000       2.03710000
C        2.57890000      -1.99300000       3.44630000
C        3.37020000      -3.17350000       2.81800000
C        3.17840000      -2.50400000       1.42880000
O        1.85900000      -0.30680000       1.64200000
H        1.36160000       1.64740000      -0.14880000
H        0.09100000       1.63390000      -1.38520000
H       -0.31350000       2.00250000       0.29740000
H       -0.95970000      -0.37470000      -0.24820000
H        0.69350000      -0.71410000      -0.76100000
H       -0.16230000       0.07850000       2.06190000
H       -0.06360000      -2.34300000       2.52700000
H        0.41510000      -2.66620000       0.84110000
H        3.24420000      -1.18780000       3.77170000
H        1.86130000      -2.20620000       4.24320000
H        4.39410000      -3.32990000       3.16180000
H        2.82860000      -4.11990000       2.89650000
H        2.95320000      -3.13650000       0.56570000
H        4.01480000      -1.84440000       1.17890000
