18
Properties=species:S:1:pos:R:3 gdb_109757=T pbc="F F F"
N        0.15970000       1.24930000       0.08450000
H        0.08780000      -0.48260000       0.33450000
H        1.12420000       1.49720000       0.28310000
H       -0.11440000       1.74200000      -0.75930000
C       -0.69410000       1.60000000       1.20670000
C       -2.12780000       1.15090000       1.21210000
C       -2.79340000       0.36520000       0.09760000
O       -3.85640000      -0.42750000       0.59570000
C       -1.11990000       0.48700000       2.15150000
C       -0.77670000      -0.97080000       1.96180000
O       -0.12370000      -1.30900000       0.84250000
O       -1.11160000      -1.79540000       2.77580000
H       -0.49630000       2.56210000       1.67650000
H       -2.81690000       1.82590000       1.71130000
H       -3.25040000       1.05870000      -0.61730000
H       -2.06420000      -0.24200000      -0.45260000
H       -3.48210000      -1.07250000       1.20740000
H       -1.21780000       0.73300000       3.20160000
