21
Properties=species:S:1:pos:R:3 gdb_26099=T pbc="F F F"
C       -0.28570000       1.50500000      -0.14350000
C        0.01730000      -0.00040000       0.01640000
C        0.86140000      -0.22600000       1.28150000
C       -1.31250000      -0.77590000       0.13490000
C        0.75880000      -0.48370000      -1.20870000
C        2.00240000      -1.05570000      -1.31130000
N        2.19030000      -1.30410000      -2.65560000
C        1.07000000      -0.87940000      -3.30140000
N        0.19090000      -0.38180000      -2.46580000
H        0.64020000       2.08750000      -0.19710000
H       -0.85100000       1.68520000      -1.06110000
H       -0.87140000       1.87330000       0.70620000
H        0.32080000       0.12530000       2.16630000
H        1.08580000      -1.28800000       1.42840000
H        1.80960000       0.32020000       1.23220000
H       -1.90560000      -0.65770000      -0.77520000
H       -1.13030000      -1.84560000       0.28290000
H       -1.89890000      -0.40910000       0.98480000
H        2.75370000      -1.30470000      -0.58180000
H        3.00380000      -1.72120000      -3.07520000
H        0.95570000      -0.95880000      -4.37250000
