14
Properties=species:S:1:pos:R:3 gdb_50977=T pbc="F F F"
O       -0.02320000      -0.07720000       0.08050000
C       -0.01670000       1.11710000      -0.05440000
C        1.26020000       1.94580000      -0.06010000
C        1.29770000       2.96710000      -1.20640000
O        0.22440000       3.89270000      -0.99440000
C       -0.22210000       4.59420000      -2.07460000
O       -1.10760000       5.38170000      -1.98600000
C        2.58920000       3.67350000      -1.24530000
N        3.60530000       4.22140000      -1.28020000
H       -0.95580000       1.69730000      -0.16750000
H        1.31890000       2.49920000       0.88530000
H        2.11890000       1.27380000      -0.12240000
H        1.16360000       2.45610000      -2.16940000
H        0.31650000       4.34170000      -3.00670000
