20
Properties=species:S:1:pos:R:3 gdb_105675=T pbc="F F F"
C       -0.45310000       1.44200000      -0.16610000
N       -0.15290000       0.04980000       0.11060000
C       -1.15780000      -0.77620000       0.80770000
C       -0.01550000      -1.51290000       1.54480000
C        0.91220000      -0.35970000       1.07600000
C        2.23510000      -0.70560000       0.40420000
O        3.21470000      -1.09360000       1.35730000
C        1.14400000       0.68560000       2.16650000
O        0.53540000       0.73750000       3.20550000
H        0.42900000       1.94350000      -0.57810000
H       -1.24190000       1.48740000      -0.92490000
H       -0.79950000       2.01170000       0.71360000
H       -1.79160000      -0.20260000       1.49980000
H       -1.79950000      -1.35870000       0.13780000
H       -0.12780000      -1.60930000       2.62350000
H        0.24500000      -2.47470000       1.09730000
H        2.06670000      -1.47020000      -0.36640000
H        2.64090000       0.18090000      -0.09800000
H        2.91770000      -1.91010000       1.77290000
H        1.90010000       1.46110000       1.90830000
