21
Properties=species:S:1:pos:R:3 gdb_60055=T pbc="F F F"
C       -0.35510000       1.56900000       0.11730000
C       -0.45710000       0.08080000      -0.20280000
O        0.85250000      -0.47650000      -0.43460000
C       -1.22210000      -0.70710000       0.87230000
C       -1.35400000      -2.18020000       0.53470000
O       -0.15110000      -2.89550000       0.50890000
C       -2.53050000      -2.97440000       1.03750000
C       -2.42390000      -2.61620000      -0.43380000
O       -3.25790000      -1.62680000      -0.97140000
H        0.21720000       2.08740000      -0.65690000
H       -1.34820000       2.02430000       0.17990000
H        0.14530000       1.72830000       1.08110000
H       -0.97480000      -0.05310000      -1.15800000
H        1.38700000      -0.29110000       0.34700000
H       -0.71020000      -0.60470000       1.83980000
H       -2.21680000      -0.26540000       0.97660000
H        0.45090000      -2.36970000      -0.04070000
H       -2.34510000      -4.00360000       1.32370000
H       -3.27740000      -2.45080000       1.62530000
H       -2.14530000      -3.41790000      -1.11640000
H       -4.15100000      -1.98360000      -1.02260000
