21
Properties=species:S:1:pos:R:3 gdb_102753=T pbc="F F F"
C        0.40710000       1.25080000       0.28610000
C        0.02930000      -0.17600000      -0.12770000
N        0.61150000      -0.59560000      -1.39680000
C        2.03530000      -0.90510000      -1.48300000
C        2.43410000      -2.11240000      -0.66270000
C        3.84150000      -2.28420000      -0.23340000
N        2.79630000      -1.98720000       0.76310000
C       -0.15830000      -0.69670000      -2.52040000
O        0.23310000      -1.01820000      -3.62310000
H        1.48710000       1.36530000       0.42130000
H        0.08420000       1.97360000      -0.46900000
H       -0.07290000       1.50530000       1.23610000
H        0.32150000      -0.88730000       0.65270000
H       -1.05850000      -0.25040000      -0.22780000
H        2.23360000      -1.08480000      -2.54280000
H        2.63310000      -0.03670000      -1.17180000
H        1.85130000      -3.00570000      -0.87750000
H        4.27310000      -3.27830000      -0.16690000
H        4.55080000      -1.50090000      -0.49090000
H        2.85160000      -1.00300000       1.01790000
H       -1.21760000      -0.44800000      -2.31150000
