17
Properties=species:S:1:pos:R:3 gdb_109555=T pbc="F F F"
C       -0.08580000       1.22540000       0.03110000
O        0.34680000      -0.12610000      -0.04740000
C        0.87280000      -0.63420000       1.15090000
C       -0.24260000      -1.23580000       2.08820000
O       -1.52190000      -0.68230000       2.11370000
C       -0.06780000      -2.51440000       1.25210000
O       -0.89460000      -3.26490000       0.81770000
C        1.35840000      -2.09320000       0.82110000
O        1.82300000      -2.36500000      -0.45370000
H        0.75320000       1.88870000       0.28640000
H       -0.46080000       1.49380000      -0.95890000
H       -0.88190000       1.34440000       0.77200000
H        1.59570000       0.04890000       1.61050000
H        0.14760000      -1.34200000       3.10870000
H       -2.06820000      -1.21900000       1.52410000
H        2.10240000      -2.42890000       1.55060000
H        1.27770000      -1.84290000      -1.05750000
