17
Properties=species:S:1:pos:R:3 gdb_50362=T pbc="F F F"
O        0.76540000      -0.23410000       0.42120000
C        0.41730000       0.91350000       0.48750000
C        1.22330000       2.12040000       0.01770000
C        1.50600000       3.12090000       1.16620000
C        2.88890000       2.68910000       1.63300000
O        2.86570000       1.50240000       2.45390000
C        3.59840000       0.73870000       1.45850000
C        3.49140000       1.89840000       0.44810000
O        2.48000000       1.78050000      -0.53780000
H       -0.58620000       1.19720000       0.88620000
H        0.62110000       2.58900000      -0.77390000
H        1.53750000       4.14370000       0.77970000
H        0.77120000       3.07550000       1.97400000
H        3.47780000       3.49310000       2.08540000
H        4.62080000       0.52570000       1.79410000
H        3.08190000      -0.17980000       1.17350000
H        4.40690000       2.23250000      -0.04110000
