14
Properties=species:S:1:pos:R:3 gdb_48349=T pbc="F F F"
O       -0.36630000       0.52440000      -0.83530000
C        0.13400000       0.99510000       0.15430000
C        1.35490000       1.87130000       0.11340000
C        2.35780000       1.55510000      -1.01880000
C        1.49720000       2.74800000      -1.15100000
C        1.84330000       2.36160000       1.35900000
C        2.22750000       2.75800000       2.43590000
C        2.67160000       3.21210000       3.64290000
N        3.05030000       3.59920000       4.67120000
H       -0.27570000       0.81130000       1.16740000
H        3.40450000       1.68290000      -0.77240000
H        2.10140000       0.67610000      -1.59860000
H        0.64800000       2.69090000      -1.82180000
H        1.92780000       3.73000000      -0.99920000
