19
Properties=species:S:1:pos:R:3 gdb_16372=T pbc="F F F"
C       -0.34260000       1.27930000      -1.26790000
C        0.23860000      -0.05190000      -0.83460000
O        1.62230000      -0.21380000      -1.23120000
C        2.04030000      -0.58350000       0.11210000
C        3.21860000       0.23150000       0.60250000
C        0.63660000      -0.27020000       0.62720000
C        0.18280000       0.45220000       1.83260000
N       -0.05990000      -0.99920000       1.67190000
H        0.24020000       2.10980000      -0.86010000
H       -0.33630000       1.35490000      -2.35980000
H       -1.38080000       1.37750000      -0.93050000
H       -0.37270000      -0.87990000      -1.22830000
H        2.26440000      -1.65840000       0.16400000
H        2.98650000       1.30040000       0.59140000
H        3.48600000      -0.06160000       1.62360000
H        4.08930000       0.06020000      -0.03810000
H        0.88800000       0.71100000       2.61790000
H       -0.65430000       1.13910000       1.73370000
H       -1.02730000      -1.16920000       1.40420000
