18
Properties=species:S:1:pos:R:3 gdb_19304=T pbc="F F F"
C       -0.08210000       1.52750000      -0.25880000
C        0.06040000      -0.00270000      -0.26720000
C       -1.27650000      -0.70150000      -0.26440000
C       -1.52320000      -1.93170000       0.49670000
O       -2.00820000      -0.67230000       0.96570000
C        1.25480000       2.22620000      -0.27320000
C        1.51600000       3.44800000       0.49670000
O        2.00920000       2.18340000       0.94260000
H       -0.66290000       1.85550000      -1.13180000
H       -0.64040000       1.82910000       0.63380000
H        0.62560000      -0.32250000      -1.15330000
H        0.63440000      -0.31240000       0.61250000
H       -1.89940000      -0.52120000      -1.14390000
H       -2.28690000      -2.63420000       0.16520000
H       -0.71530000      -2.36830000       1.08280000
H        1.86110000       2.05550000      -1.16610000
H        2.27360000       4.15400000       0.15870000
H        0.71930000       3.87810000       1.10250000
