18
Properties=species:S:1:pos:R:3 gdb_109373=T pbc="F F F"
O        0.09820000       1.43810000       0.04600000
C        0.00710000       0.03590000       0.27200000
C       -1.39530000      -0.50860000       0.11180000
C       -2.48250000       0.30640000       0.15370000
N       -3.77190000      -0.11750000       0.01170000
C       -3.99060000      -1.43460000      -0.57750000
C       -3.02650000      -2.43930000       0.05050000
C       -1.57310000      -1.95250000       0.00340000
O       -0.64230000      -2.74160000      -0.04660000
H       -0.05520000       1.58630000      -0.89310000
H        0.68510000      -0.53160000      -0.37910000
H        0.36860000      -0.11730000       1.29590000
H       -2.34890000       1.37070000       0.32390000
H       -4.45480000       0.59090000      -0.20480000
H       -5.03090000      -1.72990000      -0.41470000
H       -3.81750000      -1.39500000      -1.66620000
H       -3.28450000      -2.58870000       1.10800000
H       -3.09160000      -3.41070000      -0.44450000
