15
Properties=species:S:1:pos:R:3 gdb_13646=T pbc="F F F"
C       -0.13590000       1.49210000      -0.15870000
C       -0.01510000       0.00160000       0.02630000
N        1.30940000      -0.58860000      -0.17380000
C        0.71390000      -0.61200000       1.18900000
C        1.34830000       0.17220000       2.20580000
C        1.85590000       0.81800000       3.09600000
C        2.42940000       1.54750000       4.08990000
C        2.93760000       2.19530000       4.97360000
H        0.74450000       2.00170000       0.23830000
H       -0.22520000       1.73770000      -1.22200000
H       -1.02280000       1.87560000       0.35610000
H       -0.87210000      -0.57700000      -0.31750000
H        1.23550000      -1.51700000      -0.58230000
H        0.32430000      -1.56540000       1.54120000
H        3.38680000       2.76530000       5.74850000
