18
Properties=species:S:1:pos:R:3 gdb_41267=T pbc="F F F"
C       -0.00190000       1.48450000       0.16630000
C        1.51780000       1.60470000      -0.23770000
C        1.35940000       0.20150000      -0.78810000
O        2.27990000      -0.85770000      -1.06360000
C        1.30080000      -1.44450000      -1.97040000
C        0.06240000      -2.06820000      -1.27590000
N       -0.62440000      -0.72170000      -1.11160000
C        0.08760000      -0.07260000       0.03640000
C        0.48030000      -0.14250000      -2.01720000
H       -0.25680000       1.85550000       1.15920000
H       -0.68050000       1.92940000      -0.56440000
H        1.81930000       2.40340000      -0.92010000
H        2.15770000       1.62750000       0.64970000
H        1.77730000      -1.96430000      -2.80190000
H       -0.51310000      -2.67850000      -1.97880000
H        0.22270000      -2.62820000      -0.35010000
H        0.07000000      -0.62430000       0.97870000
H        0.24850000       0.48130000      -2.87810000
