18
Properties=species:S:1:pos:R:3 gdb_35980=T pbc="F F F"
N        0.40380000      -1.15670000       0.89060000
C        0.29430000      -0.08570000       0.47320000
C        0.09070000       1.27880000      -0.03650000
C       -0.97330000       2.00920000       0.81620000
O       -1.36230000       3.20240000       0.17850000
C       -0.65260000       4.37660000       0.54970000
C        0.88140000       4.26610000       0.43940000
C        1.36640000       3.23410000      -0.58300000
O        1.35210000       1.90840000      -0.05580000
H       -0.31990000       1.20710000      -1.05740000
H       -1.86040000       1.37070000       0.88870000
H       -0.58630000       2.17840000       1.83000000
H       -1.02780000       5.14110000      -0.13690000
H       -0.93360000       4.68220000       1.56870000
H        1.28240000       5.25280000       0.17910000
H        1.32530000       3.99420000       1.40270000
H        0.78370000       3.28440000      -1.51400000
H        2.41550000       3.42070000      -0.82690000
