16
Properties=species:S:1:pos:R:3 gdb_23348=T pbc="F F F"
O        0.03920000       1.41970000      -0.10670000
C        0.01680000       0.02670000       0.17160000
C       -1.39700000      -0.53330000       0.11380000
C       -2.01460000      -0.84480000      -1.29140000
O       -1.06720000      -1.99170000      -1.41360000
C       -1.57950000      -2.08020000      -0.01100000
C       -2.95300000      -1.81870000      -0.59150000
N       -4.11740000      -2.28370000      -0.51140000
O       -4.99910000      -1.61670000      -1.38760000
H       -0.10680000       1.53490000      -1.05070000
H        0.67120000      -0.53960000      -0.50040000
H        0.40340000      -0.07930000       1.19090000
H       -2.06530000      -0.02810000       0.81740000
H       -2.16780000      -0.21100000      -2.16190000
H       -1.21450000      -2.88990000       0.61710000
H       -5.82790000      -2.08060000      -1.22640000
