20
Properties=species:S:1:pos:R:3 gdb_69809=T pbc="F F F"
C       -0.03330000       1.52610000       0.00320000
C        0.00810000       0.01240000      -0.00160000
N       -0.79050000      -0.70900000       1.03190000
C        0.68100000      -0.72060000       1.11530000
C        1.39600000      -2.01870000       0.86030000
C        0.62320000      -3.27030000       0.55810000
C        1.37740000      -2.56710000      -0.55980000
C        0.66470000      -1.78220000      -1.58830000
C        0.03990000      -0.62580000      -1.34290000
H        0.81490000       1.94740000      -0.54690000
H       -0.95110000       1.89240000      -0.47250000
H       -0.00200000       1.92100000       1.02420000
H       -1.16340000      -0.03470000       1.69760000
H        1.13780000      -0.10140000       1.88390000
H        2.32820000      -2.12820000       1.40400000
H        1.02190000      -4.21560000       0.90970000
H       -0.45630000      -3.18170000       0.55970000
H        2.27290000      -3.07520000      -0.90660000
H        0.66980000      -2.18020000      -2.60030000
H       -0.45940000      -0.09620000      -2.15060000
