19
Properties=species:S:1:pos:R:3 gdb_77306=T pbc="F F F"
C       -0.13820000       1.52380000       0.05550000
C       -0.03090000       0.03580000      -0.02580000
C       -0.02000000      -0.73850000      -1.11060000
C        0.05190000      -2.21050000      -0.78580000
C        0.45750000      -2.22030000       0.72050000
C        1.89600000      -2.39520000       0.88580000
C        3.08630000      -2.50060000       1.03110000
C        0.01620000      -0.80310000       1.24340000
O        0.80870000      -0.27450000       2.28330000
H        0.67380000       1.93660000       0.66340000
H       -0.11070000       1.98680000      -0.93430000
H       -1.07210000       1.82410000       0.54870000
H       -0.09690000      -0.37740000      -2.13100000
H       -0.92400000      -2.69690000      -0.91960000
H        0.76540000      -2.76050000      -1.40650000
H       -0.05680000      -3.01260000       1.27290000
H        4.13400000      -2.62660000       1.15110000
H       -0.99240000      -0.87720000       1.67330000
H        1.73290000      -0.44010000       2.05270000
