20
Properties=species:S:1:pos:R:3 gdb_57727=T pbc="F F F"
C        0.32420000       1.53070000       0.46160000
C       -0.05100000       0.09000000       0.05340000
C        0.27550000      -0.88070000       1.20560000
C       -1.52910000      -0.00960000      -0.38050000
N       -2.48210000       0.39480000       0.64340000
C       -3.15590000      -0.49570000       1.42070000
O       -2.98280000      -1.69600000       1.41860000
C        0.83310000      -0.27950000      -1.13050000
O        0.44640000      -0.53120000      -2.24250000
H        1.38980000       1.60930000       0.70060000
H        0.10430000       2.24680000      -0.33780000
H       -0.23610000       1.82550000       1.35400000
H       -0.26700000      -0.59240000       2.10950000
H       -0.01420000      -1.90520000       0.95900000
H        1.34630000      -0.86390000       1.43670000
H       -1.68630000       0.60300000      -1.27240000
H       -1.76160000      -1.04230000      -0.64720000
H       -2.74820000       1.36400000       0.70580000
H       -3.89550000       0.00770000       2.07510000
H        1.92210000      -0.29370000      -0.88590000
