16
Properties=species:S:1:pos:R:3 gdb_26583=T pbc="F F F"
C        0.05370000       1.51950000       0.01500000
C        0.01920000       0.01680000       0.00420000
C       -1.17490000      -0.66340000       0.04650000
N       -2.42370000      -0.07720000       0.14430000
C       -1.18790000      -2.11970000       0.03210000
O       -2.19650000      -2.81360000       0.04500000
N        0.09040000      -2.66810000      -0.00780000
C        1.23210000      -1.92020000      -0.04550000
N        1.23470000      -0.62970000      -0.04370000
H        1.08260000       1.86380000       0.12620000
H       -0.34650000       1.94240000      -0.91690000
H       -0.55050000       1.92240000       0.83670000
H       -2.54260000       0.81810000      -0.30360000
H       -3.16750000      -0.73800000      -0.04250000
H        0.13220000      -3.67850000      -0.02250000
H        2.16500000      -2.47480000      -0.07710000
