20
Properties=species:S:1:pos:R:3 gdb_104277=T pbc="F F F"
C       -0.19620000       1.58470000       0.08630000
C       -0.01900000       0.07050000      -0.01650000
C       -1.34640000      -0.66620000       0.15100000
O       -1.90180000      -0.30370000       1.40470000
C        0.80840000      -0.42850000      -1.24590000
C        1.87960000      -0.96980000      -0.25660000
N        1.05660000      -0.47260000       0.84170000
C        1.23310000      -0.60710000       2.17610000
O        2.19400000      -1.15900000       2.67870000
H        0.76810000       2.09100000      -0.00870000
H       -0.85540000       1.94180000      -0.71270000
H       -0.64610000       1.85970000       1.04280000
H       -2.01330000      -0.38740000      -0.68180000
H       -1.16430000      -1.74910000       0.09180000
H       -2.65440000      -0.87370000       1.58590000
H        0.31080000      -1.19350000      -1.84540000
H        1.15090000       0.37150000      -1.90320000
H        2.01450000      -2.05610000      -0.24740000
H        2.86600000      -0.49930000      -0.31710000
H        0.40320000      -0.16320000       2.75550000
