19
Properties=species:S:1:pos:R:3 gdb_28199=T pbc="F F F"
C        0.11290000       1.44970000      -0.01950000
C       -0.07330000      -0.02480000      -0.01720000
C       -1.17510000      -0.82830000      -0.10420000
C       -0.68820000      -2.17390000      -0.01690000
C        0.65340000      -2.07520000       0.10940000
C        1.40820000      -3.35760000       0.14690000
C        0.21450000      -4.35970000       0.31740000
C       -1.10840000      -3.61380000      -0.08290000
O        1.06870000      -0.78530000       0.10930000
H        0.76640000       1.77390000      -0.83780000
H       -0.85440000       1.94300000      -0.13990000
H        0.56240000       1.80380000       0.91570000
H       -2.19220000      -0.48150000      -0.20730000
H        1.96690000      -3.53760000      -0.78190000
H        2.12890000      -3.43450000       0.96840000
H        0.36340000      -5.27300000      -0.26360000
H        0.15110000      -4.65500000       1.36850000
H       -1.93040000      -3.87300000       0.59320000
H       -1.43660000      -3.89430000      -1.09260000
