18
Properties=species:S:1:pos:R:3 gdb_98810=T pbc="F F F"
C        0.08320000       1.38920000       0.27180000
N       -0.04140000      -0.04650000       0.13840000
C       -1.24650000      -0.64200000      -0.05030000
O       -2.32880000      -0.08940000      -0.12970000
N       -1.15390000      -2.03750000      -0.15520000
C       -2.21390000      -3.02690000      -0.36000000
C       -1.09690000      -4.11780000      -0.32120000
C       -0.11840000      -2.95600000      -0.11170000
N        1.12010000      -2.73160000       0.05000000
H        0.71590000       1.80960000      -0.51840000
H       -0.91550000       1.82000000       0.19200000
H        0.51240000       1.66370000       1.24230000
H        0.77590000      -0.64580000       0.18320000
H       -2.94120000      -3.06440000       0.45430000
H       -2.73640000      -2.91770000      -1.31330000
H       -1.15460000      -4.81720000       0.51480000
H       -0.95030000      -4.67130000      -1.25040000
H        1.66350000      -3.59120000       0.04150000
