18
Properties=species:S:1:pos:R:3 gdb_126636=T pbc="F F F"
C       -0.01910000       1.54950000      -0.02430000
C        0.00310000       0.02170000       0.05970000
C       -1.40820000      -0.57300000       0.00080000
N       -1.41270000      -2.02530000       0.04810000
N       -1.47150000      -2.76980000      -1.09210000
N       -1.42180000      -4.02020000      -0.74490000
C       -1.32520000      -4.11660000       0.61070000
C       -1.31690000      -2.83810000       1.12150000
O       -1.24180000      -2.29830000       2.35640000
H        0.99400000       1.95840000       0.02240000
H       -0.47260000       1.89010000      -0.96140000
H       -0.59250000       1.98630000       0.80090000
H        0.59140000      -0.39760000      -0.76380000
H        0.48480000      -0.29720000       0.99110000
H       -2.01670000      -0.20500000       0.83320000
H       -1.90630000      -0.30090000      -0.93300000
H       -1.27420000      -5.06420000       1.12170000
H       -1.21990000      -3.00790000       3.00620000
