17
Properties=species:S:1:pos:R:3 gdb_81928=T pbc="F F F"
C        0.59400000       1.56260000      -0.07330000
C        0.03050000       0.14040000      -0.00940000
C        0.47440000      -0.72470000      -1.19230000
O        1.88760000      -0.68780000      -1.40020000
C        1.32710000      -1.85270000      -0.76600000
C        1.54160000      -1.69280000       0.71890000
O        2.37510000      -2.21300000       1.41790000
C        0.51790000      -0.67630000       1.22510000
O        0.98780000       0.07640000       2.30510000
H        1.68350000       1.54360000      -0.14160000
H        0.20310000       2.08860000      -0.95010000
H        0.31690000       2.12160000       0.82230000
H       -1.06310000       0.18730000      -0.00010000
H       -0.12160000      -0.77760000      -2.09970000
H        1.44930000      -2.79740000      -1.28640000
H       -0.33360000      -1.31400000       1.53750000
H        1.71620000      -0.43370000       2.68870000
