25
Properties=species:S:1:pos:R:3 gdb_92904=T pbc="F F F"
C       -0.06510000       1.55860000      -0.03950000
C        0.06270000       0.03250000       0.00330000
C        0.65740000      -0.52670000      -1.30170000
C        0.97120000      -1.99550000      -1.20250000
C        0.96720000      -2.66570000      -0.05100000
C        0.66800000      -2.03680000       1.29290000
C        1.46940000      -2.71290000       2.41590000
C        0.83830000      -0.49630000       1.23540000
C        2.31110000      -0.05490000       1.25940000
H        0.90450000       2.04750000      -0.18100000
H       -0.70920000       1.87070000      -0.86900000
H       -0.50350000       1.94710000       0.88620000
H       -0.95470000      -0.37570000       0.08920000
H       -0.04240000      -0.35120000      -2.12990000
H        1.56710000       0.02990000      -1.57540000
H        1.20820000      -2.51430000      -2.12890000
H        1.18760000      -3.73190000      -0.04900000
H       -0.39480000      -2.22470000       1.51570000
H        2.54750000      -2.65780000       2.23800000
H        1.26090000      -2.24720000       3.38530000
H        1.20310000      -3.77270000       2.49110000
H        0.35530000      -0.07970000       2.13070000
H        2.88800000      -0.52380000       0.45640000
H        2.40200000       1.02960000       1.15120000
H        2.78710000      -0.32280000       2.20650000
