16
Properties=species:S:1:pos:R:3 gdb_17186=T pbc="F F F"
O       -0.00190000       1.40940000      -0.04620000
C       -0.00080000      -0.00620000      -0.04210000
C       -1.39580000      -0.53880000       0.06110000
O       -2.32450000      -0.14030000      -1.00720000
C       -3.12260000      -0.95580000      -0.09780000
C       -1.98390000      -1.98080000       0.20430000
C       -2.16580000      -1.82550000       1.73020000
C       -2.46330000      -0.40610000       1.20060000
H       -0.66900000       1.67890000      -0.68880000
H        0.47380000      -0.41610000      -0.94810000
H        0.59010000      -0.33020000       0.82150000
H       -4.17210000      -1.12630000      -0.33490000
H       -1.71800000      -2.85440000      -0.39080000
H       -3.00570000      -2.36460000       2.17630000
H       -1.27010000      -1.94200000       2.34610000
H       -2.73010000       0.50560000       1.73330000
