13
Properties=species:S:1:pos:R:3 gdb_132248=T pbc="F F F"
F        0.01430000       0.02000000       0.00310000
C       -0.01420000       1.35300000       0.01050000
C       -1.22710000       2.01590000       0.03060000
C       -1.20520000       3.41680000       0.03760000
C        0.04960000       4.05160000       0.02380000
N        1.20810000       3.39810000       0.00450000
C        1.18020000       2.06460000      -0.00210000
C       -2.40710000       4.17740000       0.05810000
C       -3.41910000       4.82930000       0.07530000
H       -2.15880000       1.46350000       0.04040000
H        0.09820000       5.13640000       0.02890000
H        2.12790000       1.53350000      -0.01790000
H       -4.31230000       5.40390000       0.09050000
