17
Properties=species:S:1:pos:R:3 gdb_32614=T pbc="F F F"
C        0.00510000       1.57350000       0.09160000
C        0.00310000       0.05060000      -0.05020000
N       -1.34100000      -0.52840000      -0.00960000
C       -2.00990000      -0.69360000       1.18410000
C       -3.27060000      -1.16570000       1.20390000
C       -3.96510000      -1.50340000      -0.04460000
O       -5.10650000      -1.91720000      -0.08140000
N       -3.21150000      -1.32020000      -1.23210000
C       -2.01340000      -0.86510000      -1.15610000
H        1.03140000       1.95130000       0.06240000
H       -0.55880000       2.04190000      -0.72010000
H       -0.44410000       1.88210000       1.04030000
H        0.45690000      -0.24640000      -0.99970000
H        0.59620000      -0.41260000       0.74520000
H       -1.45230000      -0.42760000       2.07530000
H       -3.79730000      -1.30700000       2.13910000
H       -1.43340000      -0.72240000      -2.06860000
