16
Properties=species:S:1:pos:R:3 gdb_103064=T pbc="F F F"
O        0.10420000       1.31000000       0.30020000
C        0.02520000      -0.00920000      -0.19660000
C       -1.38570000      -0.57650000      -0.08740000
C       -2.39360000       0.15960000      -0.81070000
N       -3.21060000       0.73990000      -1.38860000
C       -1.71510000      -2.07530000       0.01560000
C       -0.67940000      -2.77790000       0.88670000
O       -0.85440000      -1.78870000       1.94420000
C       -1.91050000      -1.18450000       1.20970000
H       -0.04580000       1.27730000       1.25110000
H        0.31760000       0.04310000      -1.24930000
H        0.72420000      -0.67700000       0.31860000
H       -2.42990000      -2.54470000      -0.64500000
H       -1.02340000      -3.75830000       1.23080000
H        0.35480000      -2.84650000       0.53670000
H       -2.78340000      -0.82570000       1.74130000
