20
Properties=species:S:1:pos:R:3 gdb_96289=T pbc="F F F"
C        0.39840000       1.64280000      -0.05670000
C       -0.02990000       0.17580000       0.06530000
C        0.28080000      -0.58960000      -1.22810000
O       -0.34590000      -1.87190000      -1.21840000
C        0.45120000      -2.92310000      -0.78020000
O        1.14800000      -2.63580000       0.42330000
C        0.42600000      -1.96310000       1.40490000
N       -0.22350000      -2.53790000       2.32120000
C        0.60190000      -0.47060000       1.31900000
H        1.48000000       1.72830000      -0.21480000
H       -0.10300000       2.13370000      -0.89710000
H        0.15240000       2.20120000       0.85150000
H       -1.12020000       0.13440000       0.18280000
H       -0.13930000      -0.05030000      -2.08350000
H        1.36470000      -0.68430000      -1.38490000
H       -0.23060000      -3.77290000      -0.64910000
H        1.24490000      -3.17910000      -1.49640000
H       -0.18270000      -3.55260000       2.19970000
H        1.68270000      -0.27430000       1.30920000
H        0.18410000      -0.01840000       2.22090000
