14
Properties=species:S:1:pos:R:3 gdb_30992=T pbc="F F F"
N       -0.03120000       1.30000000      -0.30410000
C       -0.11610000      -0.06270000      -0.13200000
C       -1.13230000      -0.91050000       0.06640000
C       -2.60950000      -0.72150000       0.07850000
O       -2.98150000       0.37560000      -0.75420000
O       -0.58380000      -2.17950000       0.31150000
C        0.76420000      -2.07050000       0.22420000
O        1.55890000      -2.94490000       0.35250000
O        1.07220000      -0.75470000      -0.04960000
H        0.67450000       1.58080000      -0.97410000
H       -0.93930000       1.69670000      -0.51470000
H       -3.10090000      -1.65810000      -0.22160000
H       -2.98860000      -0.46610000       1.07530000
H       -2.79130000       0.11990000      -1.66380000
