19
Properties=species:S:1:pos:R:3 gdb_75553=T pbc="F F F"
C       -0.11390000       1.53300000       0.02380000
C        0.01450000       0.03790000      -0.04640000
C        0.03520000      -0.64740000      -1.18970000
C        0.07870000      -2.15020000      -1.24470000
C       -0.33720000      -2.71790000       0.10980000
O        0.38050000      -2.08650000       1.15780000
C        0.07050000      -0.70630000       1.28800000
C        1.05940000      -0.12430000       2.19970000
C        1.85270000       0.37110000       2.95300000
H        0.75390000       1.98630000       0.51430000
H       -0.21550000       1.96290000      -0.97590000
H       -0.99380000       1.82810000       0.61050000
H       -0.00370000      -0.10670000      -2.13280000
H       -0.59340000      -2.52280000      -2.02810000
H        1.08610000      -2.50060000      -1.50770000
H       -1.42220000      -2.58500000       0.25450000
H       -0.11130000      -3.78430000       0.19380000
H       -0.92440000      -0.60180000       1.76560000
H        2.55980000       0.79960000       3.61960000
