23
Properties=species:S:1:pos:R:3 gdb_78109=T pbc="F F F"
C       -0.04520000       1.50380000       0.07740000
C       -0.01420000       0.00140000       0.03860000
C       -1.26300000      -0.89250000      -0.05060000
C       -0.65810000      -1.85830000       1.02830000
C       -1.36330000      -1.67460000       2.37620000
C       -0.56400000      -3.34370000       0.67700000
C        0.64300000      -1.02820000       1.00200000
C        1.19160000      -0.79190000      -0.36710000
O        1.18210000      -1.79680000      -1.34730000
H        0.94510000       1.91740000       0.29580000
H       -0.37340000       1.92090000      -0.88350000
H       -0.73590000       1.87180000       0.84490000
H       -2.17590000      -0.39620000       0.28880000
H       -1.44600000      -1.33400000      -1.03480000
H       -2.37640000      -2.09140000       2.34430000
H       -0.81640000      -2.18670000       3.17670000
H       -1.44000000      -0.61670000       2.64930000
H       -0.07570000      -3.49280000      -0.28600000
H        0.00900000      -3.88530000       1.43920000
H       -1.56390000      -3.79350000       0.63910000
H        1.25620000      -0.84960000       1.88100000
H        2.11500000      -0.20830000      -0.35510000
H        1.07650000      -1.37090000      -2.20460000
