18
Properties=species:S:1:pos:R:3 gdb_85759=T pbc="F F F"
O       -0.06110000       1.44670000       0.08540000
C       -0.00800000       0.03190000       0.01140000
C        0.69970000      -0.61890000       1.22620000
C        0.02080000      -2.00480000       1.39230000
C        0.08720000      -2.52010000       2.76050000
N        0.13870000      -2.92260000       3.84300000
C       -1.40450000      -1.80020000       0.86640000
C       -2.14620000      -0.57420000       1.32710000
C       -1.40780000      -0.55240000       0.01290000
H        0.83040000       1.78960000      -0.03290000
H        0.49460000      -0.27920000      -0.91830000
H        1.78110000      -0.70660000       1.09840000
H        0.52300000       0.00370000       2.10650000
H        0.52330000      -2.73510000       0.74640000
H       -1.96710000      -2.68380000       0.59010000
H       -3.22800000      -0.61680000       1.27850000
H       -1.76810000       0.00460000       2.16220000
H       -1.97890000      -0.50280000      -0.90650000
