20
Properties=species:S:1:pos:R:3 gdb_80925=T pbc="F F F"
C       -0.19050000       1.59260000      -0.04350000
C        0.00460000       0.08510000       0.00180000
C        1.19110000      -0.62050000      -0.75440000
C        2.15950000      -0.10140000       0.35560000
C        0.86950000      -0.59720000       1.10230000
O        0.58000000      -0.56730000       2.44890000
C        0.92390000      -1.81950000       0.16740000
C        0.17710000      -3.07500000       0.06000000
N        1.63810000      -3.05540000       0.40280000
H        0.73450000       2.15910000       0.08520000
H       -0.63230000       1.89080000      -1.00050000
H       -0.88060000       1.90380000       0.74780000
H       -0.95520000      -0.42060000      -0.15270000
H        1.36850000      -0.63570000      -1.82790000
H        3.06450000      -0.69140000       0.51820000
H        2.37180000       0.96690000       0.37550000
H        1.15010000      -1.21080000       2.88650000
H       -0.46870000      -3.41090000       0.86700000
H       -0.10940000      -3.43130000      -0.92660000
H        2.18430000      -3.32720000      -0.41210000
