19
Properties=species:S:1:pos:R:3 gdb_63108=T pbc="F F F"
C        0.00510000       1.53240000       0.03920000
C        0.04810000       0.01730000       0.02700000
C       -1.19030000      -0.64260000      -0.55620000
C        1.32030000      -0.73450000      -0.20570000
N        2.47950000       0.01790000       0.29170000
C        1.96410000      -0.09730000       1.69500000
C        0.66710000      -0.76350000       1.20030000
C       -0.01870000      -1.78960000       1.90550000
N       -0.56930000      -2.62420000       2.49180000
H        0.97130000       1.96400000       0.30380000
H       -0.25840000       1.90150000      -0.95810000
H       -0.75420000       1.89540000       0.73970000
H       -1.35150000      -0.29490000      -1.58170000
H       -1.10720000      -1.73300000      -0.57420000
H       -2.07950000      -0.39050000       0.03070000
H        1.41460000      -1.53240000      -0.93400000
H        3.33590000      -0.51290000       0.18200000
H        2.55160000      -0.78520000       2.30800000
H        1.86380000       0.85950000       2.21680000
