19
Properties=species:S:1:pos:R:3 gdb_96147=T pbc="F F F"
O        0.23840000       1.33560000      -0.27070000
C        0.02810000      -0.05100000      -0.03760000
C        0.76580000      -0.45030000       1.26180000
O        0.47930000      -1.75690000       1.73190000
C       -0.72720000      -1.87060000       2.46650000
C       -1.96570000      -1.52520000       1.64660000
C       -1.82800000      -1.87750000       0.15230000
C       -1.46430000      -0.38680000       0.00630000
O       -2.00570000      -0.10440000       1.32880000
H       -0.21930000       1.81200000       0.43290000
H        0.47490000      -0.56420000      -0.89740000
H        1.84360000      -0.40980000       1.08240000
H        0.52000000       0.29480000       2.03320000
H       -0.77930000      -2.91460000       2.79530000
H       -0.70120000      -1.22570000       3.35970000
H       -2.87460000      -1.84000000       2.17110000
H       -1.06910000      -2.61230000      -0.11620000
H       -2.78090000      -2.12210000      -0.31810000
H       -1.98390000       0.18300000      -0.77060000
