17
Properties=species:S:1:pos:R:3 gdb_5905=T pbc="F F F"
C       -0.04260000       1.56450000       0.05470000
C        0.00200000       0.02090000       0.04430000
C        0.72760000      -0.50150000       1.30360000
C       -1.36260000      -0.51310000       0.00240000
C       -2.47950000      -0.95520000      -0.03960000
C        0.73040000      -0.48640000      -1.24400000
C        2.11460000      -0.02840000      -1.34010000
N        3.20810000       0.34060000      -1.40460000
H        0.97220000       1.97300000       0.06400000
H       -0.56520000       1.94790000      -0.82620000
H       -0.56930000       1.92130000       0.94320000
H        0.20880000      -0.16600000       2.20500000
H        0.75540000      -1.59470000       1.31530000
H        1.75450000      -0.12560000       1.33260000
H       -3.46850000      -1.34170000      -0.06740000
H        0.71960000      -1.58080000      -1.26210000
H        0.18460000      -0.14570000      -2.12960000
