19
Properties=species:S:1:pos:R:3 gdb_88871=T pbc="F F F"
C       -0.05500000       1.48870000      -0.26730000
C       -0.07680000       0.02320000       0.08740000
O        1.15380000      -0.70650000       0.01250000
C        0.53340000      -0.56330000       1.29020000
C        1.27610000       0.25460000       2.31930000
O        0.33720000       0.85670000       3.18380000
C        0.96460000       0.92470000       4.45690000
C        1.78030000      -0.36880000       4.48660000
O        2.11390000      -0.57490000       3.11760000
H        0.82400000       1.99350000       0.13670000
H       -0.04800000       1.61180000      -1.35520000
H       -0.95030000       1.98360000       0.12320000
H       -0.92610000      -0.52500000      -0.32560000
H        0.10720000      -1.47870000       1.70220000
H        1.91240000       1.00860000       1.83010000
H        1.61420000       1.80990000       4.52810000
H        0.18890000       0.98400000       5.22300000
H        2.69990000      -0.29030000       5.07440000
H        1.18500000      -1.21000000       4.86650000
