15
Properties=species:S:1:pos:R:3 gdb_34514=T pbc="F F F"
C        0.04330000      -1.20460000      -0.03320000
C       -0.03310000      -0.00120000      -0.01160000
C       -0.06780000       1.40470000       0.01430000
C       -1.11360000       2.25630000       0.01870000
C       -0.49270000       3.62930000       0.05120000
C        0.80930000       3.58080000      -0.82860000
O        1.52470000       4.47270000       0.08910000
C        0.78970000       3.54740000       0.95690000
C        1.14890000       2.32570000       0.04480000
H        0.09570000      -2.26490000      -0.05240000
H       -2.16740000       2.01870000       0.00270000
H       -1.09660000       4.53410000       0.06140000
H        0.93090000       3.74020000      -1.90240000
H        0.88770000       3.66670000       2.03830000
H        2.15890000       1.92260000       0.04840000
