16
Properties=species:S:1:pos:R:3 gdb_70065=T pbc="F F F"
O       -0.18320000       1.47360000       0.01020000
C       -0.01690000       0.09040000       0.01890000
C       -0.42890000      -0.69650000      -1.20320000
C       -1.27390000      -0.82140000       0.04840000
N       -0.99010000      -2.04700000       0.79430000
C        0.14850000      -1.81550000       1.29820000
O        1.23400000      -2.58900000       1.61540000
C        2.08780000      -1.50490000       1.06880000
C        0.86670000      -0.52420000       1.08350000
H        0.45170000       1.85020000      -0.60890000
H       -0.83480000      -0.08780000      -2.00470000
H        0.12770000      -1.57160000      -1.52370000
H       -2.27870000      -0.41830000       0.07160000
H        2.90910000      -1.27730000       1.74920000
H        2.45120000      -1.79060000       0.07870000
H        0.90720000       0.13210000       1.95660000
