22
Properties=species:S:1:pos:R:3 gdb_59734=T pbc="F F F"
C        0.00360000       1.54850000      -0.04660000
C        0.06640000       0.01690000       0.05410000
C        0.77270000      -0.40150000       1.35250000
C       -1.33740000      -0.61080000      -0.05850000
C       -2.18920000      -0.14510000      -1.25730000
C       -3.13930000      -1.32630000      -1.53600000
N       -2.34900000      -2.45670000      -1.08680000
C       -1.34360000      -2.14670000      -0.21170000
O       -0.62140000      -2.95750000       0.33200000
H        1.00620000       1.97840000       0.04610000
H       -0.41590000       1.88940000      -0.99790000
H       -0.60990000       1.96820000       0.76010000
H        0.65870000      -0.35590000      -0.79400000
H        1.78840000       0.00680000       1.38390000
H        0.23410000      -0.01050000       2.22510000
H        0.82180000      -1.48710000       1.43910000
H       -1.88320000      -0.40170000       0.87500000
H       -2.73030000       0.78490000      -1.07460000
H       -1.54090000       0.00920000      -2.12720000
H       -4.07640000      -1.23190000      -0.96740000
H       -3.39990000      -1.41460000      -2.59540000
H       -2.61730000      -3.41850000      -1.22250000
