18
Properties=species:S:1:pos:R:3 gdb_98997=T pbc="F F F"
C        0.80960000       1.35900000      -0.20810000
N        0.90200000       0.02640000      -0.76470000
C       -0.19550000      -0.65640000      -1.15240000
O       -1.34930000      -0.27020000      -1.09210000
N        0.05240000      -1.95090000      -1.67890000
C        1.25750000      -2.61460000      -1.85200000
O        2.34300000      -2.13110000      -1.54970000
N        1.12750000      -3.86230000      -2.39230000
C        2.27250000      -4.71280000      -2.65100000
H        1.35950000       2.08300000      -0.82020000
H       -0.24280000       1.64290000      -0.18300000
H        1.21170000       1.39150000       0.81100000
H        1.79280000      -0.44420000      -0.88420000
H       -0.81220000      -2.39630000      -1.94500000
H        0.21170000      -4.20890000      -2.62250000
H        2.21090000      -5.64750000      -2.08270000
H        2.35760000      -4.95330000      -3.71660000
H        3.16220000      -4.16620000      -2.33890000
