13
Properties=species:S:1:pos:R:3 gdb_124375=T pbc="F F F"
C       -0.11630000       1.47660000      -0.09800000
C        0.35130000       0.05110000      -0.07790000
O        1.23700000      -0.43070000       0.55420000
O       -0.43420000      -0.70010000      -0.96630000
C       -0.23210000      -2.02910000      -1.01870000
C        0.17370000      -2.82520000      -2.04400000
N        0.09800000      -4.11060000      -1.57530000
N       -0.30690000      -4.14350000      -0.38750000
O       -0.54600000      -2.77120000       0.02960000
H        0.53690000       2.07840000       0.53170000
H       -0.11710000       1.85810000      -1.12230000
H       -1.14480000       1.52930000       0.27130000
H        0.49870000      -2.57780000      -3.03840000
