19
Properties=species:S:1:pos:R:3 gdb_41185=T pbc="F F F"
C        0.04500000       1.58640000      -0.16380000
O        1.50260000       1.46980000       0.08560000
C        1.12980000       0.30800000       0.91790000
C        1.24420000      -1.23320000       1.20630000
C       -0.37210000      -1.10050000       1.13540000
C       -0.07400000       0.04860000       0.08800000
C        0.29320000      -0.65440000      -1.21100000
C        1.14650000      -1.67350000      -1.22820000
C        1.78190000      -2.09670000       0.06830000
H       -0.42550000       2.22860000       0.59030000
H       -0.15500000       1.95180000      -1.17540000
H        0.85530000       0.74590000       1.88940000
H        1.67200000      -1.51610000       2.17120000
H       -0.91030000      -1.97320000       0.76030000
H       -0.78920000      -0.76610000       2.08630000
H       -0.19000000      -0.29580000      -2.11630000
H        1.39750000      -2.20450000      -2.14130000
H        2.87560000      -2.00650000       0.01520000
H        1.58040000      -3.15770000       0.27340000
