25
Properties=species:S:1:pos:R:3 gdb_86079=T pbc="F F F"
C       -0.80370000       1.13970000       0.01630000
C        0.13750000      -0.05890000      -0.09810000
C        1.32190000       0.14140000      -1.07300000
C        2.38410000      -0.79540000      -0.53580000
C        3.60120000      -1.15070000      -1.33000000
C        2.07900000      -1.18440000       0.70330000
C        0.79380000      -0.57350000       1.23210000
C        1.13750000       0.56380000       2.21840000
C       -0.09940000      -1.60390000       1.94090000
H       -0.27900000       2.04000000       0.35240000
H       -1.25600000       1.36740000      -0.95500000
H       -1.62140000       0.94640000       0.71940000
H       -0.44540000      -0.90460000      -0.48600000
H        1.04600000      -0.07480000      -2.11290000
H        1.68540000       1.18100000      -1.06710000
H        4.17280000      -0.25360000      -1.60210000
H        4.26530000      -1.82000000      -0.77600000
H        3.33100000      -1.64170000      -2.27390000
H        2.70010000      -1.82850000       1.32040000
H        1.72950000       1.34850000       1.73710000
H        0.23470000       1.02340000       2.63530000
H        1.72660000       0.17490000       3.05620000
H        0.37740000      -1.98060000       2.85300000
H       -1.05920000      -1.16130000       2.23230000
H       -0.30510000      -2.46110000       1.29160000
