17
Properties=species:S:1:pos:R:3 gdb_41043=T pbc="F F F"
C       -0.02890000       1.49910000       0.10060000
O        1.01250000       1.91640000      -0.80330000
C        2.07960000       0.94910000      -0.84190000
C        1.38870000      -0.36000000      -0.57240000
C        0.79290000      -1.59420000      -1.21690000
C       -0.59700000      -1.23160000      -0.59560000
C        0.01530000      -1.30600000       0.81680000
C        1.40470000      -1.66850000       0.19570000
C        0.02130000      -0.00330000       0.03880000
H        0.17370000       1.86530000       1.11900000
H       -0.95750000       1.95300000      -0.25520000
H        2.55180000       1.03750000      -1.82380000
H        2.83130000       1.17200000      -0.06900000
H        1.09020000      -2.14230000      -2.10220000
H       -1.61840000      -1.43560000      -0.89150000
H       -0.47270000      -1.57380000       1.74560000
H        2.23120000      -2.27920000       0.53700000
