19
Properties=species:S:1:pos:R:3 gdb_26249=T pbc="F F F"
C       -0.07020000       1.35520000       0.06460000
N       -0.25540000      -0.08340000       0.00180000
C        0.22930000      -0.82140000       1.16310000
C       -0.02500000      -0.63580000      -1.23940000
C        0.27130000      -0.14010000      -2.47280000
N        0.28320000      -1.19280000      -3.38820000
C        0.02060000      -2.24770000      -2.69540000
C       -0.07160000      -3.66340000      -3.13300000
O       -0.18600000      -1.98760000      -1.36100000
H        0.98480000       1.65830000      -0.04310000
H       -0.64940000       1.83400000      -0.72970000
H       -0.43740000       1.71970000       1.02740000
H       -0.25590000      -0.42800000       2.06070000
H       -0.03020000      -1.87530000       1.06200000
H        1.32110000      -0.73910000       1.29290000
H        0.47530000       0.87450000      -2.76910000
H        0.66710000      -4.28940000      -2.62020000
H       -1.06100000      -4.08440000      -2.92290000
H        0.11170000      -3.70890000      -4.20690000
