17
Properties=species:S:1:pos:R:3 gdb_83498=T pbc="F F F"
O       -0.03570000       1.41270000      -0.03040000
C       -0.01040000       0.00710000       0.01720000
C        0.32040000      -0.60550000       1.39900000
C       -0.77280000      -0.02180000       2.30760000
C       -2.00880000      -0.00370000       1.35590000
C       -1.42900000      -0.58660000       0.02990000
C       -1.08040000      -2.03760000       0.33300000
O       -1.59990000      -3.05640000      -0.01170000
O        0.01050000      -2.00290000       1.17010000
H        0.87030000       1.73330000      -0.08090000
H        0.61780000      -0.42230000      -0.77420000
H        1.34730000      -0.54020000       1.75800000
H       -0.91470000      -0.65070000       3.18850000
H       -0.50320000       0.98400000       2.63620000
H       -2.84360000      -0.60260000       1.72490000
H       -2.36480000       1.01270000       1.18400000
H       -2.04800000      -0.46540000      -0.85540000
