17
Properties=species:S:1:pos:R:3 gdb_65442=T pbc="F F F"
C        0.01410000       1.49660000       0.28580000
C        0.06630000      -0.01060000       0.08530000
C        1.39680000      -0.64140000      -0.33440000
C        0.89630000      -0.85710000       1.04980000
O        1.61700000      -0.21100000       2.07560000
C        1.02840000      -0.17370000       3.29470000
O        1.54080000       0.35290000       4.23370000
C       -1.13990000      -0.61880000      -0.40910000
C       -2.15440000      -1.12290000      -0.81400000
H        0.94970000       1.86470000       0.71200000
H       -0.15650000       1.99970000      -0.67000000
H       -0.80240000       1.76960000       0.96110000
H        1.38050000      -1.47690000      -1.02330000
H        2.23250000       0.04010000      -0.44640000
H        0.51040000      -1.83370000       1.32550000
H        0.04690000      -0.68390000       3.31270000
H       -3.04960000      -1.56460000      -1.17600000
