18
Properties=species:S:1:pos:R:3 gdb_82760=T pbc="F F F"
O        0.05020000       1.37250000       0.07330000
C       -0.00020000      -0.03470000       0.08220000
C        0.33170000      -0.65840000       1.45310000
C       -0.64660000       0.06640000       2.40060000
C       -1.65930000      -0.76990000       1.61930000
N       -0.62530000      -1.88400000       1.47970000
C       -1.10300000      -2.11870000       0.06990000
C       -1.42850000      -0.61600000       0.05430000
O       -2.24540000       0.05990000      -0.84940000
H       -0.62040000       1.66240000      -0.55760000
H        0.61320000      -0.44440000      -0.73260000
H        1.37310000      -0.84840000       1.70730000
H       -0.56040000      -0.29060000       3.42870000
H       -0.68460000       1.15220000       2.35010000
H       -2.65770000      -1.03700000       1.97380000
H       -0.37230000      -2.51190000      -0.64390000
H       -1.97590000      -2.77780000       0.11200000
H       -3.15170000      -0.24860000      -0.75500000
