21
Properties=species:S:1:pos:R:3 gdb_81805=T pbc="F F F"
C        0.08390000       1.54940000      -0.05000000
C        0.04820000       0.03420000       0.02110000
N        1.06750000      -0.58730000      -0.90920000
C        0.92530000      -2.04700000      -0.73190000
C        1.69540000      -1.30270000       0.28690000
C        3.17450000      -1.43370000       0.49120000
C        0.72870000      -0.62760000       1.23180000
C        0.98630000      -0.03690000       2.55990000
N        0.15130000      -1.25090000       2.42030000
H        1.09530000       1.92320000       0.13410000
H       -0.22850000       1.88820000      -1.04240000
H       -0.59060000       1.99330000       0.69030000
H       -0.96570000      -0.33450000      -0.18610000
H       -0.05260000      -2.45860000      -0.48870000
H        1.48760000      -2.61970000      -1.46390000
H        3.66920000      -1.71800000      -0.44180000
H        3.61330000      -0.49140000       0.83590000
H        3.39300000      -2.20420000       1.23960000
H        1.93960000      -0.19850000       3.05670000
H        0.50700000       0.90760000       2.80540000
H       -0.83350000      -1.00530000       2.49930000
