16
Properties=species:S:1:pos:R:3 gdb_52830=T pbc="F F F"
C        0.00640000       1.50670000      -0.06330000
C        0.03890000       0.05280000      -0.01650000
C        0.05580000      -1.15160000       0.01960000
C        0.09980000      -2.60640000       0.03660000
N        1.05510000      -3.22590000      -0.88340000
C        0.06830000      -3.26760000       1.44220000
O       -1.24320000      -3.85440000       1.15400000
C       -1.28120000      -3.31130000      -0.09380000
O       -2.11430000      -3.42320000      -0.93120000
H        0.76200000       1.89820000      -0.75290000
H       -0.97130000       1.86670000      -0.40120000
H        0.19890000       1.94030000       0.92400000
H        0.69520000      -3.13080000      -1.82990000
H        1.92950000      -2.70780000      -0.85880000
H        0.81760000      -4.04660000       1.58540000
H        0.00810000      -2.58780000       2.29220000
