15
Properties=species:S:1:pos:R:3 gdb_68940=T pbc="F F F"
O       -0.29380000       1.25330000      -0.01240000
C       -0.00480000      -0.06680000       0.03150000
C       -0.18670000      -0.94990000       1.17190000
C       -1.15550000      -1.28480000       0.01730000
C       -2.56490000      -0.94750000       0.15170000
O       -2.96610000      -0.13700000       0.97070000
C       -0.43070000      -1.80110000      -1.17500000
O       -0.74230000      -2.58660000      -2.02730000
C        0.71390000      -0.74580000      -1.12730000
H       -0.95630000       1.45050000       0.66640000
H        0.56160000      -1.69580000       1.42690000
H       -0.72160000      -0.53120000       2.01990000
H       -3.24720000      -1.41220000      -0.58590000
H        0.70240000      -0.14830000      -2.04190000
H        1.73080000      -1.09270000      -0.92400000
