15
Properties=species:S:1:pos:R:3 gdb_19776=T pbc="F F F"
O       -0.02810000       0.00270000       0.09470000
C       -0.04970000       1.20080000       0.03380000
C       -1.27820000       2.08310000      -0.03650000
C       -1.55180000       2.90820000       1.20850000
C       -0.78660000       3.51020000       0.06780000
C        0.73150000       3.42190000       0.05730000
C        1.50450000       2.79220000       1.16080000
N        1.13860000       2.01440000      -0.04580000
H       -2.11140000       1.75220000      -0.64370000
H       -2.57820000       3.23430000       1.33630000
H       -1.05590000       2.66320000       2.14000000
H       -1.23720000       4.31130000      -0.50420000
H        1.24590000       4.10470000      -0.61300000
H        2.56780000       2.99290000       1.25910000
H        1.00990000       2.54990000       2.09530000
