14
Properties=species:S:1:pos:R:3 gdb_131706=T pbc="F F F"
O        0.10720000       1.39780000      -0.04430000
C        0.04610000       0.00670000      -0.05930000
C       -1.37030000      -0.51800000      -0.01870000
N       -2.32100000       0.36650000       0.02490000
C       -3.64700000      -0.06020000       0.06410000
O       -4.61240000       0.66170000       0.10520000
N       -3.80510000      -1.46200000       0.05240000
N       -2.84960000      -2.38300000       0.00800000
C       -1.63040000      -1.92940000      -0.02790000
H       -0.81360000       1.70560000      -0.00910000
H        0.53300000      -0.40170000      -0.96180000
H        0.59110000      -0.42400000       0.79870000
H       -4.75370000      -1.81260000       0.08010000
H       -0.83460000      -2.66380000      -0.06470000
