15
Properties=species:S:1:pos:R:3 gdb_84418=T pbc="F F F"
O        0.15130000       1.40580000      -0.20480000
C        0.06420000       0.01040000      -0.01330000
C        0.65690000      -0.53830000       1.26170000
C       -0.25110000      -1.28320000       1.89470000
N       -1.48150000      -1.30850000       1.19870000
C       -2.63530000      -1.95520000       1.61370000
N       -2.65490000      -2.63760000       2.68490000
C       -1.39930000      -0.51160000       0.04530000
O       -2.30680000      -0.28410000      -0.71180000
H       -0.22660000       1.83760000       0.56980000
H        0.53710000      -0.43070000      -0.90000000
H        1.67360000      -0.36500000       1.58080000
H       -0.18950000      -1.84700000       2.81310000
H       -3.45550000      -1.78960000       0.91110000
H       -3.57760000      -3.04250000       2.82950000
