20
Properties=species:S:1:pos:R:3 gdb_107003=T pbc="F F F"
C       -0.30900000       1.48690000      -0.02220000
C       -0.05790000      -0.01150000      -0.07540000
C        1.14290000      -0.55990000      -0.96120000
O        1.99670000       0.36500000      -1.57200000
C        1.68920000      -1.25710000       0.29320000
N        1.97470000      -0.13310000       1.22530000
C        0.59420000      -0.70020000       1.13450000
C       -0.09490000      -1.25100000       2.34180000
O       -0.68050000      -0.23560000       3.14590000
H        0.59020000       2.02570000       0.28740000
H       -0.60880000       1.86740000      -1.00340000
H       -1.10450000       1.71530000       0.69420000
H       -0.97490000      -0.54560000      -0.34690000
H        0.80370000      -1.24990000      -1.73670000
H        2.43310000       0.83140000      -0.84600000
H        2.23630000      -2.18930000       0.37520000
H        2.42570000      -0.53530000       2.04690000
H       -0.92530000      -1.89760000       2.03780000
H        0.60870000      -1.87340000       2.92160000
H        0.00490000       0.41150000       3.34370000
