18
Properties=species:S:1:pos:R:3 gdb_37616=T pbc="F F F"
C       -0.04130000       1.56820000       0.01380000
C        1.45520000       1.87120000       0.03270000
C        1.98630000       0.95830000       1.15220000
C        1.26120000      -0.28980000       0.82460000
C        0.00670000       0.00570000      -0.05260000
C        0.28000000      -0.34740000      -1.49210000
C        1.39990000       0.19020000      -1.98600000
C        2.22380000       0.91010000      -0.97060000
N        2.57790000      -0.02250000       0.18820000
H       -0.50220000       1.90660000       0.94910000
H       -0.58360000       2.00070000      -0.83140000
H        1.74360000       2.92070000       0.00900000
H        2.44610000       1.22280000       2.09700000
H        1.26550000      -1.15140000       1.48140000
H       -0.88850000      -0.47390000       0.34470000
H       -0.41450000      -0.94850000      -2.06880000
H        1.73300000       0.07470000      -3.01120000
H        3.14260000       1.34770000      -1.36010000
