17
Properties=species:S:1:pos:R:3 gdb_73893=T pbc="F F F"
N        0.08630000       1.33900000      -0.01480000
C       -0.00800000      -0.01630000       0.00950000
C       -1.12830000      -0.80390000       0.02420000
C       -2.49850000      -0.36300000       0.03150000
O       -3.47190000      -1.09600000       0.04690000
C       -0.72530000      -2.23980000       0.00170000
N        0.04290000      -2.61080000      -1.22290000
C        0.75790000      -2.28000000       0.02690000
C        1.26520000      -0.84410000       0.06420000
H        0.97380000       1.75730000      -0.23540000
H       -0.72220000       1.89250000      -0.24550000
H       -2.64170000       0.74610000       0.03960000
H       -1.35370000      -2.98620000       0.47180000
H        0.02870000      -3.62470000      -1.32410000
H        1.31400000      -3.05360000       0.54410000
H        1.92680000      -0.61510000      -0.78000000
H        1.81870000      -0.62800000       0.98730000
