17
Properties=species:S:1:pos:R:3 gdb_126411=T pbc="F F F"
C        0.08550000       1.55890000       0.18410000
C       -0.04600000       0.03990000       0.09780000
C       -1.45030000      -0.46840000      -0.07950000
N       -2.43900000       0.36810000      -0.14740000
N       -3.66770000      -0.15250000      -0.30600000
C       -3.98590000      -1.49780000      -0.40460000
N       -5.20530000      -1.86200000      -0.55450000
C       -2.77590000      -2.32200000      -0.31180000
N       -1.58790000      -1.85280000      -0.16020000
H        1.13450000       1.84010000       0.31190000
H       -0.29310000       2.04090000      -0.72120000
H       -0.48380000       1.95810000       1.02780000
H        0.55630000      -0.35430000      -0.73140000
H        0.36790000      -0.43620000       0.99650000
H       -4.42170000       0.51800000      -0.35620000
H       -5.26840000      -2.87700000      -0.60940000
H       -2.90550000      -3.40320000      -0.37730000
