17
Properties=species:S:1:pos:R:3 gdb_47905=T pbc="F F F"
O       -0.51550000       1.03780000      -1.25220000
C       -0.09560000       1.34330000      -0.16980000
O       -0.88690000       1.22260000       0.96770000
C       -1.69170000       2.35440000       1.26090000
O       -0.93900000       3.51540000       1.42480000
C       -0.07220000       3.53370000       2.54790000
C        1.03220000       2.44860000       2.54630000
C        1.75630000       2.31270000       1.23130000
C        1.27500000       1.82460000       0.07930000
H       -2.38150000       2.55650000       0.43470000
H       -2.24170000       2.08100000       2.17120000
H        0.38170000       4.52840000       2.52970000
H       -0.65390000       3.44190000       3.47820000
H        1.74590000       2.71810000       3.33210000
H        0.59090000       1.48880000       2.82240000
H        2.78520000       2.66650000       1.21550000
H        1.90580000       1.79620000      -0.80330000
