18
Properties=species:S:1:pos:R:3 gdb_112309=T pbc="F F F"
C       -0.22170000       1.30620000       0.07630000
O       -0.11550000      -0.10960000       0.09990000
C        0.76700000      -0.59590000       1.04700000
O        0.26460000      -0.34120000       2.38170000
C        0.32670000      -1.46660000       3.16790000
N        0.17240000      -1.47670000       4.42030000
C        0.61920000      -2.64710000       2.31340000
C       -0.35060000      -2.87110000       1.16960000
C        0.91270000      -2.10000000       0.93700000
H        0.76090000       1.77550000      -0.07860000
H       -0.87410000       1.55940000      -0.76140000
H       -0.65560000       1.68980000       1.00630000
H        1.73490000      -0.07530000       0.97250000
H        0.01640000      -0.52940000       4.76850000
H        1.14120000      -3.48290000       2.75700000
H       -0.39690000      -3.87780000       0.77160000
H       -1.29090000      -2.33260000       1.16750000
H        1.69760000      -2.49410000       0.30510000
