19
Properties=species:S:1:pos:R:3 gdb_108693=T pbc="F F F"
O        0.84610000      -0.75590000       0.95830000
C        0.06700000      -0.03150000       0.01030000
C       -1.36550000      -0.48150000       0.00790000
C       -2.48720000       0.25590000       0.15050000
C       -3.73530000      -0.60170000       0.12350000
C       -3.21820000      -1.96300000      -0.40060000
C       -1.69660000      -1.95230000      -0.12070000
C       -2.56450000       1.70350000       0.35290000
O       -3.60930000       2.30400000       0.49760000
H        0.50990000      -0.54130000       1.83500000
H        0.15770000       1.05150000       0.16070000
H        0.51810000      -0.26050000      -0.96330000
H       -4.15730000      -0.68010000       1.13400000
H       -4.52130000      -0.16530000      -0.49880000
H       -3.72650000      -2.81540000       0.05580000
H       -3.38740000      -2.02680000      -1.48020000
H       -1.10500000      -2.44290000      -0.90210000
H       -1.43980000      -2.46890000       0.81370000
H       -1.59670000       2.24870000       0.37200000
