23
Properties=species:S:1:pos:R:3 gdb_87993=T pbc="F F F"
C        0.00840000       1.66610000       0.15980000
C       -0.24110000       0.18740000       0.30220000
O        0.73390000      -0.69420000      -0.28580000
C        0.59400000      -0.69320000       1.12690000
C        1.70390000      -0.33090000       2.11440000
C        1.07340000      -1.35110000       3.10780000
C        0.18330000      -1.93220000       1.95540000
C       -1.30170000      -2.09260000       2.26680000
C        0.76620000      -3.21540000       1.35520000
H        1.05110000       1.91090000       0.37720000
H       -0.21430000       1.99720000      -0.86000000
H       -0.63470000       2.23160000       0.84340000
H       -1.27080000      -0.12620000       0.11980000
H        2.68810000      -0.63820000       1.75060000
H        1.76450000       0.71020000       2.44070000
H        1.75990000      -2.05630000       3.58160000
H        0.47960000      -0.86430000       3.88580000
H       -1.72730000      -1.17000000       2.67500000
H       -1.87050000      -2.35890000       1.36840000
H       -1.46020000      -2.88920000       3.00290000
H        0.61860000      -4.06050000       2.03680000
H        0.28220000      -3.45130000       0.40250000
H        1.83950000      -3.11990000       1.16250000
