21
Properties=species:S:1:pos:R:3 gdb_123109=T pbc="F F F"
C       -0.05790000       1.42590000      -0.13630000
N       -0.15720000      -0.01410000      -0.33600000
C       -1.34660000      -0.59770000       0.26380000
C       -1.36220000      -2.11130000       0.06330000
N       -2.54360000      -2.71250000       0.69030000
H       -2.54890000      -2.50680000       1.68270000
H       -3.97340000      -2.66030000      -0.59790000
C       -2.67830000      -4.15030000       0.46180000
C       -3.49050000      -4.43610000      -0.81300000
O       -4.19910000      -3.37640000      -1.23180000
O       -3.51020000      -5.50430000      -1.35960000
H        0.82230000       1.80840000      -0.66080000
H       -0.94000000       1.99390000      -0.48240000
H        0.07280000       1.63800000       0.93100000
H       -0.15180000      -0.21460000      -1.33140000
H       -1.32190000      -0.37580000       1.34080000
H       -2.29350000      -0.17070000      -0.11740000
H       -1.40500000      -2.33850000      -1.01010000
H       -0.42080000      -2.53840000       0.44220000
H       -1.72270000      -4.68520000       0.38450000
H       -3.23250000      -4.59880000       1.29310000
