17
Properties=species:S:1:pos:R:3 gdb_31291=T pbc="F F F"
C       -0.42730000       1.56500000      -0.11240000
C        0.09200000       0.12680000       0.05620000
C        0.75650000      -0.40890000      -1.17560000
C        2.08880000      -0.70670000      -1.32770000
O        2.33120000      -1.16240000      -2.60110000
C        1.14580000      -1.15060000      -3.25090000
C        0.15110000      -0.70290000      -2.43980000
C        3.17340000      -0.62560000      -0.43810000
C        4.09030000      -0.54970000       0.34060000
H        0.39290000       2.25090000      -0.34450000
H       -1.15720000       1.63130000      -0.92540000
H       -0.91310000       1.91060000       0.80530000
H        0.80340000       0.08780000       0.88720000
H       -0.74540000      -0.52730000       0.33080000
H        1.17170000      -1.48860000      -4.27420000
H       -0.89050000      -0.59640000      -2.70150000
H        4.90010000      -0.48380000       1.02400000
