16
Properties=species:S:1:pos:R:3 gdb_31326=T pbc="F F F"
C        0.05090000       1.48270000      -0.03590000
N       -0.12330000       0.04960000       0.10450000
C        0.55610000      -0.66100000       1.05690000
C        0.70830000      -2.04350000       1.14600000
O        1.42670000      -2.34450000       2.28600000
C        1.71580000      -1.18610000       2.88610000
C        1.22380000      -0.11580000       2.20050000
C        0.26440000      -3.10500000       0.29160000
O        0.44920000      -4.29600000       0.45160000
H        1.08750000       1.77400000      -0.26090000
H       -0.59120000       1.83680000      -0.84480000
H       -0.25850000       1.99610000       0.88030000
H       -0.34610000      -0.44800000      -0.74160000
H        2.28370000      -1.25670000       3.80090000
H        1.32420000       0.92180000       2.47290000
H       -0.30400000      -2.72850000      -0.59390000
