18
Properties=species:S:1:pos:R:3 gdb_67875=T pbc="F F F"
C       -0.12560000       1.51480000       0.17380000
C        0.06260000       0.01110000      -0.02890000
C       -1.24450000      -0.74790000      -0.12820000
C       -1.37020000      -1.68420000       0.80860000
C       -0.18240000      -1.74710000       1.73980000
C        0.80520000      -0.73080000       1.13610000
O        1.90800000      -1.39250000       0.46500000
C        1.84030000      -1.00200000      -0.83110000
N        0.90940000      -0.23880000      -1.22300000
H        0.84340000       2.01480000       0.26590000
H       -0.64890000       1.94950000      -0.68250000
H       -0.71270000       1.71490000       1.07610000
H       -1.96620000      -0.52200000      -0.90450000
H       -2.22740000      -2.33840000       0.92410000
H       -0.45680000      -1.47500000       2.76720000
H        0.27200000      -2.74250000       1.79110000
H        1.24120000      -0.06340000       1.88390000
H        2.63320000      -1.40120000      -1.45490000
