20
Properties=species:S:1:pos:R:3 gdb_60293=T pbc="F F F"
C        0.02540000       1.58180000      -0.13880000
C        0.00810000       0.06130000      -0.00780000
C       -1.39680000      -0.51680000       0.08690000
O        0.61850000      -0.53520000      -1.17160000
C        1.95000000      -0.67980000      -1.15930000
N        2.56680000      -1.08240000      -2.18300000
C        3.99600000      -1.25850000      -2.07020000
C        4.39690000      -2.67510000      -2.46470000
O        5.39950000      -3.21970000      -2.08390000
H        1.04950000       1.95910000      -0.21630000
H       -0.52250000       1.89120000      -1.03380000
H       -0.44320000       2.04530000       0.73480000
H        0.58720000      -0.23950000       0.87690000
H       -1.97680000      -0.25480000      -0.80300000
H       -1.36100000      -1.60620000       0.16570000
H       -1.91200000      -0.11890000       0.96580000
H        2.43100000      -0.43610000      -0.19830000
H        4.49840000      -0.59280000      -2.79030000
H        4.41990000      -1.03910000      -1.07730000
H        3.67990000      -3.16650000      -3.15810000
