19
Properties=species:S:1:pos:R:3 gdb_63328=T pbc="F F F"
C       -0.09250000       1.56480000       0.03140000
C        0.01040000       0.03350000      -0.00670000
C       -1.39550000      -0.59700000       0.00030000
C        0.85470000      -0.48240000      -1.20000000
C        1.91030000      -1.41000000      -0.61010000
O        2.71610000      -2.09640000      -1.18700000
N        1.79200000      -1.31180000       0.76990000
C        0.77500000      -0.47700000       1.22310000
N        0.46770000      -0.16940000       2.41470000
H        0.89850000       2.02980000       0.01730000
H       -0.65290000       1.93090000      -0.83510000
H       -0.60180000       1.88650000       0.94260000
H       -1.96770000      -0.25580000      -0.86860000
H       -1.34240000      -1.69020000      -0.03700000
H       -1.93190000      -0.31410000       0.90920000
H        0.26920000      -1.02480000      -1.94660000
H        1.37120000       0.32650000      -1.72670000
H        2.41560000      -1.81980000       1.38080000
H        1.07740000      -0.61490000       3.10200000
