18
Properties=species:S:1:pos:R:3 gdb_109333=T pbc="F F F"
C        0.01060000       1.45600000      -0.02290000
N       -0.04950000       0.01260000       0.06900000
C       -1.23110000      -0.63310000       0.02150000
N       -2.39420000      -0.09440000      -0.00900000
C       -3.39050000      -1.16160000      -0.05060000
C       -2.62000000      -2.51020000       0.07400000
N       -1.22310000      -2.06010000       0.02070000
C       -0.14240000      -2.88190000      -0.02840000
O        1.02400000      -2.52750000      -0.07130000
H        1.04520000       1.77160000       0.12380000
H       -0.33980000       1.82190000      -0.99610000
H       -0.61480000       1.91480000       0.74870000
H        0.77730000      -0.56280000      -0.01090000
H       -4.11610000      -1.04560000       0.76200000
H       -3.95780000      -1.11510000      -0.98880000
H       -2.82340000      -3.01770000       1.02250000
H       -2.83710000      -3.20420000      -0.74240000
H       -0.43220000      -3.94850000      -0.02860000
