15
Properties=species:S:1:pos:R:3 gdb_37820=T pbc="F F F"
C       -0.03030000       1.48730000      -0.24150000
C        1.42360000       1.88430000       0.05240000
C        2.16890000       0.92950000       0.63690000
C        1.32340000      -0.26870000       0.83160000
O        0.61120000      -0.58580000       2.08950000
C       -0.26700000      -1.12770000       1.07500000
C        0.89720000      -1.60420000       0.12630000
O        0.38820000      -0.93250000      -1.05030000
C        0.04190000      -0.00070000       0.02770000
H       -0.72710000       2.01280000       0.42120000
H       -0.32950000       1.70420000      -1.27180000
H        1.79400000       2.87570000      -0.19250000
H        3.20350000       1.04050000       0.93600000
H       -1.18980000      -1.61880000       1.38560000
H        1.38280000      -2.57430000       0.01600000
