20
Properties=species:S:1:pos:R:3 gdb_13395=T pbc="F F F"
C       -0.01320000       1.53780000      -0.08630000
C        0.13880000       0.03050000       0.03820000
O        0.58910000      -0.47490000      -1.20200000
C        0.70250000      -1.89060000      -1.25830000
C        0.84450000      -2.32030000      -2.73560000
C        1.90930000      -3.44420000      -2.75740000
C        2.60000000      -3.28600000      -1.42390000
C        1.95290000      -2.45270000      -0.61260000
H        0.94510000       1.99940000      -0.34090000
H       -0.73130000       1.78620000      -0.87300000
H       -0.36600000       1.96640000       0.85660000
H        0.84860000      -0.21310000       0.84550000
H       -0.82490000      -0.43440000       0.30930000
H       -0.19830000      -2.32810000      -0.79180000
H       -0.10740000      -2.62010000      -3.17930000
H        1.20470000      -1.44480000      -3.28320000
H        1.44870000      -4.43820000      -2.83920000
H        2.59950000      -3.35930000      -3.60470000
H        3.50530000      -3.82800000      -1.17060000
H        2.24380000      -2.21130000       0.40340000
