15
Properties=species:S:1:pos:R:3 gdb_5395=T pbc="F F F"
C        0.00110000       1.44490000      -0.09140000
N       -0.04290000       0.01240000       0.08840000
C        0.61430000      -0.65930000       1.07870000
N        0.62100000      -1.99830000       0.98820000
C        1.23790000      -2.65900000       1.96580000
C        1.85430000      -2.01660000       3.03350000
N        1.85900000      -0.68170000       3.12420000
C        1.24940000      -0.00600000       2.16060000
H        1.02350000       1.82620000      -0.22770000
H       -0.58040000       1.70480000      -0.97770000
H       -0.44440000       1.96850000       0.76310000
H       -0.33640000      -0.56790000      -0.68050000
H        1.24180000      -3.74420000       1.89140000
H        2.35210000      -2.57440000       3.82030000
H        1.25700000       1.07720000       2.23580000
