22
Properties=species:S:1:pos:R:3 gdb_122454=T pbc="F F F"
C        0.20520000       1.54810000       0.16090000
C       -0.08830000       0.06560000      -0.08350000
C        0.74170000      -0.53150000      -1.22480000
C        0.44550000      -2.01680000      -1.47150000
C        1.26630000      -2.59480000      -2.60420000
C        2.64970000      -3.12110000      -2.36790000
C        1.52910000      -4.09430000      -2.71220000
C        1.03390000      -4.99070000      -1.70610000
N        0.63050000      -5.71380000      -0.89740000
H        1.25720000       1.70590000       0.42360000
H       -0.00450000       2.14630000      -0.73290000
H       -0.40460000       1.94610000       0.97780000
H        0.10090000      -0.50340000       0.83610000
H       -1.15560000      -0.06600000      -0.30560000
H        0.55350000       0.03620000      -2.14690000
H        1.81070000      -0.40630000      -1.00550000
H        0.63370000      -2.58920000      -0.55510000
H       -0.62150000      -2.14630000      -1.69510000
H        1.10230000      -2.11990000      -3.56850000
H        3.41650000      -2.97340000      -3.11940000
H        3.01290000      -3.14150000      -1.34630000
H        1.53710000      -4.52040000      -3.70960000
