15
Properties=species:S:1:pos:R:3 gdb_7725=T pbc="F F F"
O        0.05150000       0.36830000      -1.01700000
C       -0.01710000       1.24510000      -0.19240000
C       -1.34320000       1.89910000       0.19210000
C       -1.22500000       2.79150000       1.43100000
N       -0.08220000       3.68190000       1.29650000
C        1.15580000       3.26600000       0.89230000
O        2.12020000       4.00050000       0.83700000
C        1.21610000       1.78300000       0.52690000
H       -1.65400000       2.50390000      -0.66890000
H       -2.09680000       1.11760000       0.32360000
H       -2.12410000       3.40180000       1.54460000
H       -1.14440000       2.17340000       2.33800000
H       -0.14090000       4.63520000       1.62040000
H        1.30040000       1.21960000       1.46930000
H        2.11560000       1.58300000      -0.05440000
