12
Properties=species:S:1:pos:R:3 gdb_23667=T pbc="F F F"
F        0.00980000       0.02390000       0.00350000
C       -0.01490000       1.35930000       0.01060000
C       -1.23930000       2.01380000       0.03050000
C       -1.24620000       3.40640000       0.03760000
C       -0.05700000       4.13100000       0.02510000
C        1.14240000       3.43180000       0.00530000
F        2.29230000       4.11120000      -0.00690000
C        1.19230000       2.04450000      -0.00240000
H       -2.15480000       1.43560000       0.04010000
H       -2.19280000       3.93500000       0.05320000
H       -0.04500000       5.21370000       0.03040000
H        2.13700000       1.51690000      -0.01790000
