18
Properties=species:S:1:pos:R:3 gdb_45465=T pbc="F F F"
N       -0.25090000       1.33420000       0.21010000
C       -0.09490000       0.07150000       0.25760000
O       -1.07970000      -0.63640000       0.87050000
C       -1.14940000      -2.03720000       0.67420000
C       -1.67310000      -2.58610000      -0.67710000
C       -0.60350000      -3.70840000      -0.57670000
C        0.16030000      -2.84600000       0.48540000
C        1.22940000      -1.98980000      -0.10460000
C        1.08230000      -0.66840000      -0.23190000
H        0.56480000       1.76450000      -0.22320000
H       -1.74140000      -2.40980000       1.51250000
H       -2.72310000      -2.87980000      -0.72360000
H       -1.46220000      -1.89270000      -1.49420000
H       -0.99740000      -4.62750000      -0.13660000
H       -0.05710000      -3.96020000      -1.48780000
H        0.53750000      -3.39280000       1.35600000
H        2.13790000      -2.47810000      -0.45080000
H        1.85870000      -0.05870000      -0.68290000
