18
Properties=species:S:1:pos:R:3 gdb_90581=T pbc="F F F"
C       -0.39410000       1.47200000      -0.03780000
C        0.07260000       0.02830000       0.08960000
N        1.24380000      -0.26140000      -0.84510000
C        2.17940000      -0.33440000       0.33660000
C        0.99090000      -0.33010000       1.24350000
C        1.10520000      -1.12940000       2.30550000
C        2.50580000      -1.72220000       2.33650000
C        2.90280000      -1.60540000       0.83040000
O        3.53220000      -2.39890000       0.19050000
H        0.44160000       2.16580000       0.09000000
H       -0.82720000       1.64060000      -1.02800000
H       -1.15280000       1.69930000       0.71830000
H       -0.77630000      -0.65420000      -0.03510000
H        1.14730000      -1.18130000      -1.26970000
H        2.87670000       0.51280000       0.34640000
H        0.30370000      -1.48070000       2.94480000
H        3.22450000      -1.16740000       2.95510000
H        2.53730000      -2.76610000       2.66190000
