15
Properties=species:S:1:pos:R:3 gdb_24989=T pbc="F F F"
O        0.02400000      -0.00550000       0.17490000
C       -0.02720000       1.20290000       0.12510000
N       -1.15600000       2.02150000       0.03870000
C       -0.75460000       3.34500000      -0.24320000
C        0.58390000       3.35640000      -0.15450000
N        1.06850000       2.09720000       0.10340000
O        1.19330000       4.55270000      -0.01990000
C        0.09440000       5.49780000      -0.23620000
C       -1.24660000       4.73760000       0.02460000
H       -2.02120000       1.59680000      -0.25340000
H        2.01320000       1.76360000       0.01520000
H        0.26600000       6.34620000       0.42640000
H        0.14550000       5.82840000      -1.27850000
H       -2.02760000       5.11110000      -0.64560000
H       -1.60350000       4.86730000       1.05700000
