12
Properties=species:S:1:pos:R:3 gdb_24754=T pbc="F F F"
O        0.05170000      -0.06260000       0.00260000
C       -0.04540000       1.14450000       0.00640000
C        1.17370000       1.98870000       0.00040000
N        2.12030000       2.65250000      -0.00420000
C       -1.29940000       1.88260000       0.01700000
C       -1.46320000       3.24450000       0.02180000
O       -2.76660000       3.55710000       0.03150000
C       -3.46940000       2.37850000       0.03310000
C       -2.62580000       1.32270000       0.02460000
H       -0.76550000       4.06650000       0.01930000
H       -4.54120000       2.48170000       0.04070000
H       -2.87650000       0.27490000       0.02350000
