20
Properties=species:S:1:pos:R:3 gdb_86330=T pbc="F F F"
C       -0.03650000       1.45140000      -0.08880000
N       -0.06820000       0.02150000       0.11180000
C       -1.30240000      -0.64290000       0.56520000
C       -0.41770000      -1.67630000       1.30630000
O       -0.14260000      -2.85940000       0.59570000
C        0.69550000      -0.57950000       1.20810000
C        2.12190000      -1.00770000       0.89830000
C        2.77640000      -1.89800000       1.93500000
O        2.67470000      -0.66830000      -0.12190000
H        0.97820000       1.75420000      -0.36060000
H       -0.70500000       1.72500000      -0.91160000
H       -0.34750000       2.01970000       0.80900000
H       -1.90330000      -0.03860000       1.26650000
H       -1.95230000      -1.02370000      -0.23090000
H       -0.72870000      -1.97800000       2.30630000
H        0.09420000      -2.60580000      -0.30550000
H        0.70630000       0.03220000       2.13210000
H        2.28020000      -2.87540000       1.90990000
H        3.83630000      -2.01950000       1.70870000
H        2.65010000      -1.49430000       2.94520000
