12
Properties=species:S:1:pos:R:3 gdb_75678=T pbc="F F F"
O       -0.08110000       1.44740000      -0.15310000
C        0.02970000       0.07190000       0.00830000
C        0.25090000      -0.57210000       1.42960000
O        1.13180000      -0.51970000       2.22900000
C       -1.05910000      -1.35040000       1.29890000
O       -2.04280000      -0.31400000       1.13120000
C       -1.30250000      -0.69210000      -0.02410000
C       -1.99170000      -1.21250000      -1.16360000
N       -2.51590000      -1.62130000      -2.10910000
H        0.76820000       1.85040000       0.05900000
H        0.75480000      -0.39330000      -0.68080000
H       -1.38930000      -2.31560000       1.66300000
