19
Properties=species:S:1:pos:R:3 gdb_11043=T pbc="F F F"
C        0.19070000       1.57700000      -0.03850000
C        0.04970000       0.06500000       0.04260000
O        0.67610000      -0.50820000      -1.11020000
C        1.21780000      -1.78110000      -0.79070000
C        1.47330000      -1.77490000       0.70850000
C        1.66230000      -3.07290000       1.44580000
N        2.21300000      -0.55470000       1.10720000
C        0.73690000      -0.59910000       1.22270000
H        1.24650000       1.85100000       0.02210000
H       -0.21660000       1.94490000      -0.98410000
H       -0.35330000       2.05860000       0.78070000
H       -1.01870000      -0.21370000       0.06820000
H        0.51240000      -2.59300000      -1.03720000
H        2.12680000      -1.91660000      -1.38700000
H        2.59580000      -3.56470000       1.14840000
H        1.70130000      -2.90950000       2.52770000
H        0.84130000      -3.76840000       1.24000000
H        2.61680000      -0.70640000       2.02970000
H        0.26780000      -0.58750000       2.20150000
