21
Properties=species:S:1:pos:R:3 gdb_111976=T pbc="F F F"
C        0.21970000       1.27880000       0.43540000
C        0.30320000      -0.21420000       0.10810000
C        0.65870000      -0.50880000      -1.36230000
C        2.07300000      -0.12900000      -1.73620000
C        2.86720000      -1.18610000      -1.92790000
C        2.13080000      -2.47640000      -1.69800000
O        2.45910000      -3.09240000      -0.43820000
C        0.63860000      -2.03360000      -1.72340000
O       -0.16880000      -2.84400000      -0.90750000
H        1.17960000       1.78430000       0.28480000
H       -0.52090000       1.77980000      -0.19830000
H       -0.07540000       1.43690000       1.47730000
H        1.04180000      -0.69320000       0.76500000
H       -0.65200000      -0.70390000       0.32170000
H       -0.06350000       0.03350000      -1.98730000
H        2.39550000       0.90360000      -1.82520000
H        3.92190000      -1.15130000      -2.17680000
H        2.33620000      -3.24990000      -2.44350000
H        2.69310000      -2.38460000       0.17300000
H        0.27510000      -2.12710000      -2.75390000
H        0.44220000      -3.25640000      -0.27800000
