13
Properties=species:S:1:pos:R:3 gdb_27607=T pbc="F F F"
O        0.10510000       1.35270000       0.11760000
C        0.06960000       0.00630000       0.03720000
C        0.07240000      -0.68940000      -1.17200000
C        0.03330000      -2.08400000      -1.12690000
N       -0.00700000      -2.80450000       0.00050000
C       -0.00870000      -2.11320000       1.14250000
C        0.02790000      -0.72700000       1.22380000
C        0.03570000      -2.81720000      -2.36820000
N        0.03890000      -3.37010000      -3.38400000
H        0.13170000       1.73420000      -0.76750000
H        0.10390000      -0.17280000      -2.12530000
H       -0.04150000      -2.70490000       2.05340000
H        0.02470000      -0.21440000       2.17790000
