22
Properties=species:S:1:pos:R:3 gdb_111871=T pbc="F F F"
C       -1.32260000       0.84840000       0.56000000
C       -0.01950000       0.22750000       0.03900000
C        0.75820000      -0.43940000       1.15650000
C        0.67310000      -1.89550000       1.45900000
C       -0.10920000      -2.87870000       0.60010000
O        0.22960000      -2.82320000      -0.77540000
C        1.63460000      -2.91130000      -0.95060000
C        2.32380000      -1.65160000      -0.43080000
N        1.92540000      -1.31320000       0.94540000
H       -1.12630000       1.58270000       1.34920000
H       -1.86310000       1.35860000      -0.24280000
H       -1.98660000       0.08450000       0.97820000
H       -0.24080000      -0.48830000      -0.75570000
H        0.60230000       1.01690000      -0.40590000
H        0.90770000       0.22170000       2.01220000
H        0.73400000      -2.20810000       2.50190000
H        0.07590000      -3.89740000       0.98090000
H       -1.18670000      -2.69270000       0.66310000
H        2.02060000      -3.80200000      -0.42760000
H        1.81470000      -3.04100000      -2.02160000
H        3.41030000      -1.80300000      -0.44100000
H        2.11170000      -0.81550000      -1.10700000
