21
Properties=species:S:1:pos:R:3 gdb_108696=T pbc="F F F"
C        0.28890000       1.32330000       0.18880000
C       -0.25590000      -0.02610000      -0.31650000
C       -1.74200000      -0.13390000      -0.16400000
C       -2.59860000      -0.48620000      -1.15370000
C       -2.36240000      -1.89870000      -1.73140000
C       -3.39590000      -2.29430000      -0.61860000
C       -3.47460000      -1.43190000       0.71070000
C       -2.37170000      -0.47350000       1.18890000
C       -3.96790000      -0.90600000      -0.58560000
H        1.37610000       1.37250000       0.07360000
H       -0.15270000       2.15390000      -0.37010000
H        0.05580000       1.47230000       1.24820000
H        0.01440000      -0.15330000      -1.37060000
H        0.23630000      -0.83370000       0.24660000
H       -2.79960000      -2.10970000      -2.71440000
H       -1.34000000      -2.28750000      -1.69110000
H       -3.96820000      -3.21970000      -0.63630000
H       -4.17310000      -1.85380000       1.43200000
H       -1.60250000      -0.93130000       1.82430000
H       -2.81190000       0.34890000       1.77130000
H       -4.94830000      -0.54260000      -0.86470000
