18
Properties=species:S:1:pos:R:3 gdb_34493=T pbc="F F F"
C        0.04920000      -1.19400000      -0.02390000
C       -0.01410000       0.01000000      -0.02590000
C       -0.03060000       1.42350000      -0.01460000
C       -1.08040000       2.21780000      -0.28650000
C       -0.74120000       3.65020000      -0.13850000
C       -1.54270000       4.72860000      -0.77320000
N       -1.59920000       4.54020000       0.68440000
C        0.77730000       3.70430000       0.06240000
C        1.20020000       2.24250000       0.35710000
H        0.08960000      -2.25490000      -0.02410000
H       -2.07290000       1.86990000      -0.55070000
H       -1.04510000       5.64060000      -1.09480000
H       -2.40190000       4.44750000      -1.37800000
H       -2.45690000       4.05490000       0.94100000
H        1.26120000       4.05970000      -0.85270000
H        1.03710000       4.39540000       0.86650000
H        1.45210000       2.08120000       1.41210000
H        2.07680000       1.93450000      -0.22120000
