17
Properties=species:S:1:pos:R:3 gdb_36174=T pbc="F F F"
N       -0.06400000      -1.16650000       0.06260000
C       -0.05060000      -0.01270000      -0.00080000
C        0.00690000       1.44600000      -0.08080000
C        1.43910000       1.96470000      -0.07650000
C        2.58310000       1.71860000      -1.05310000
N        3.25620000       2.66090000      -0.05940000
C        1.92360000       3.44000000       0.09940000
C        2.00740000       3.35350000       1.62620000
C        2.46840000       1.99130000       1.09940000
H       -0.50650000       1.76870000      -0.99450000
H       -0.55150000       1.86820000       0.76320000
H        3.03040000       0.72050000      -1.08210000
H        2.50000000       2.13630000      -2.06210000
H        1.70340000       4.29010000      -0.54940000
H        2.77790000       3.96860000       2.09680000
H        1.06900000       3.38580000       2.18530000
H        2.88840000       1.13420000       1.62760000
