16
Properties=species:S:1:pos:R:3 gdb_106953=T pbc="F F F"
O        0.00070000       1.37250000      -0.37930000
C        0.04350000       0.03720000       0.09600000
C       -1.33920000      -0.53350000       0.24090000
C       -2.35860000       0.08540000       1.18040000
O       -3.34530000      -0.93600000       1.41760000
C       -2.93330000      -2.14870000       0.93680000
N       -3.47580000      -3.26160000       1.17760000
C       -1.72520000      -1.94160000       0.08590000
O       -1.97460000      -0.98610000      -0.96440000
H       -0.37690000       1.34940000      -1.26570000
H        0.63460000      -0.61650000      -0.56030000
H        0.53860000       0.07730000       1.07190000
H       -1.90090000       0.37160000       2.13440000
H       -2.85690000       0.95500000       0.74550000
H       -4.26820000      -3.14750000       1.81290000
H       -1.06160000      -2.76630000      -0.14480000
