23
Properties=species:S:1:pos:R:3 gdb_103956=T pbc="F F F"
C        0.21620000       1.66100000      -0.51480000
C        0.30800000       0.17160000      -0.24410000
C        1.53850000      -0.67790000      -0.38230000
C        2.78420000       0.01520000       0.19260000
C        2.11700000       0.01400000       1.61290000
C        2.76440000      -1.04370000       2.51430000
C        2.01600000       1.33860000       2.36220000
O        3.33690000       1.76440000       2.68430000
C        0.82900000      -0.54920000       0.97800000
H        1.15800000       2.18530000      -0.34200000
H       -0.05840000       1.83110000      -1.56200000
H       -0.55100000       2.13490000       0.10780000
H       -0.56830000      -0.35690000      -0.61990000
H        1.56820000      -1.53420000      -1.04600000
H        3.68330000      -0.60300000       0.15920000
H        3.03200000       0.99360000      -0.23000000
H        3.75880000      -0.71960000       2.83060000
H        2.15910000      -1.21170000       3.41360000
H        2.85460000      -1.99970000       1.98920000
H        1.50390000       2.09470000       1.75550000
H        1.41320000       1.18800000       3.27410000
H        3.27690000       2.60320000       3.14970000
H        0.20780000      -1.28560000       1.47890000
