25
Properties=species:S:1:pos:R:3 gdb_103838=T pbc="F F F"
C        0.00370000       1.28110000      -0.58930000
O       -0.07470000       0.08600000       0.16130000
C       -1.33750000      -0.52870000       0.16570000
C       -2.38620000       0.18890000       0.98900000
C       -1.74080000      -1.28120000      -1.08410000
C       -1.29480000      -2.03200000       0.15870000
C        0.01760000      -2.79720000       0.17400000
C        0.57160000      -2.89500000       1.60310000
C       -0.15210000      -4.18550000      -0.45880000
H        1.05280000       1.58720000      -0.58830000
H       -0.32480000       1.13030000      -1.62750000
H       -0.59590000       2.09080000      -0.15030000
H       -2.63400000       1.17030000       0.57000000
H       -3.31080000      -0.39390000       1.02630000
H       -2.03100000       0.33610000       2.01450000
H       -2.78590000      -1.29990000      -1.37550000
H       -1.04160000      -1.26240000      -1.91450000
H       -2.08780000      -2.51220000       0.73040000
H        0.73790000      -2.22810000      -0.42410000
H        0.74210000      -1.89880000       2.02060000
H       -0.12770000      -3.42610000       2.26080000
H        1.52090000      -3.44110000       1.62180000
H       -0.52990000      -4.11340000      -1.48370000
H        0.80100000      -4.72460000      -0.48560000
H       -0.86070000      -4.79510000       0.11500000
