17
Properties=species:S:1:pos:R:3 gdb_53364=T pbc="F F F"
C       -0.31590000       1.37800000       0.11930000
C       -0.12510000      -0.06300000       0.04660000
C        0.03200000      -1.25590000      -0.00860000
C        0.19520000      -2.70880000      -0.09210000
C        0.80110000      -3.34700000       1.18370000
O       -0.33140000      -3.72460000       1.96970000
C       -1.43740000      -3.79790000       1.16590000
N       -2.60040000      -4.13920000       1.52280000
N       -1.06550000      -3.45070000      -0.12690000
H        0.33050000       1.82430000       0.88270000
H       -0.08400000       1.85910000      -0.83700000
H       -1.35160000       1.62540000       0.37560000
H        0.80770000      -2.96050000      -0.96480000
H        1.38230000      -4.24010000       0.92770000
H        1.41600000      -2.65370000       1.75780000
H       -2.60710000      -4.39370000       2.50790000
H       -1.81430000      -3.09820000      -0.70410000
