21
Properties=species:S:1:pos:R:3 gdb_82447=T pbc="F F F"
C       -0.02420000       1.60670000      -0.03560000
C        0.09510000       0.08910000       0.03440000
C        1.12500000      -0.69730000      -0.84220000
C        2.52060000      -0.12480000      -0.47510000
C        2.29490000      -0.73510000       0.90800000
C        3.29460000      -0.93080000       2.00790000
C        1.28560000      -1.72790000       0.34700000
C        0.77660000      -0.60990000       1.20980000
O        0.28610000      -0.75430000       2.49500000
H        0.93380000       2.10630000       0.13600000
H       -0.40130000       1.92960000      -1.01240000
H       -0.72720000       1.97150000       0.72210000
H       -0.89110000      -0.37010000      -0.10570000
H        0.87780000      -0.95210000      -1.87050000
H        3.31770000      -0.65420000      -1.00770000
H        2.68410000       0.95530000      -0.56970000
H        3.67510000       0.03070000       2.37600000
H        2.84330000      -1.45720000       2.85470000
H        4.15720000      -1.51480000       1.66770000
H        1.19460000      -2.80150000       0.42630000
H        0.54510000       0.01840000       3.00960000
