13
Properties=species:S:1:pos:R:3 gdb_27670=T pbc="F F F"
O        0.05160000       1.34040000       0.21050000
C        0.06080000       0.00500000      -0.01010000
C        0.06030000      -0.77750000      -1.12390000
C        0.07410000      -2.15230000      -0.65710000
C        0.07900000      -3.35100000      -1.39540000
N        0.08370000      -4.36720000      -1.95760000
C        0.08240000      -2.10690000       0.72330000
O        0.09600000      -3.06370000       1.66600000
N        0.07430000      -0.80160000       1.11370000
H        0.03960000       1.79200000      -0.63910000
H        0.05150000      -0.45470000      -2.15160000
H        0.10030000      -3.92390000       1.22710000
H        0.07760000      -0.47570000       2.06560000
