18
Properties=species:S:1:pos:R:3 gdb_11973=T pbc="F F F"
C       -0.07240000       1.59070000      -0.05620000
C        0.02050000       0.06660000      -0.05580000
C       -1.33910000      -0.56680000       0.27020000
C        0.71940000      -0.63900000      -1.24490000
C        2.14830000      -0.24670000      -1.34470000
C        1.76390000      -1.29240000      -0.30280000
C        1.09890000      -0.60900000       0.85240000
O        1.20940000      -0.68420000       2.04450000
H        0.87110000       2.06840000      -0.33350000
H       -0.84160000       1.93440000      -0.75710000
H       -0.34420000       1.94880000       0.94200000
H       -2.09190000      -0.25710000      -0.46320000
H       -1.28610000      -1.66030000       0.26240000
H       -1.67610000      -0.25330000       1.26230000
H        0.19260000      -1.13460000      -2.05090000
H        2.70220000      -0.65470000      -2.18420000
H        2.48770000       0.73620000      -1.03360000
H        2.20520000      -2.28130000      -0.31010000
