18
Properties=species:S:1:pos:R:3 gdb_23301=T pbc="F F F"
C       -0.02470000       1.47970000       0.08190000
C       -0.00540000      -0.01000000      -0.01980000
C        0.04980000      -0.75310000      -1.14300000
C        0.03730000      -2.18100000      -0.81360000
N       -0.01220000      -3.21210000      -1.57150000
O       -0.01780000      -2.84610000      -2.93070000
C        0.06010000      -2.30720000       0.67690000
C        1.25500000      -1.70650000       1.39220000
C       -0.00490000      -0.88580000       1.19660000
H        0.83530000       1.84490000       0.65760000
H       -0.00820000       1.95330000      -0.90260000
H       -0.92110000       1.82420000       0.61330000
H        0.11760000      -0.37920000      -2.15460000
H       -0.06740000      -3.70230000      -3.36760000
H       -0.46600000      -3.12690000       1.14790000
H        1.45880000      -2.08400000       2.38880000
H        2.13250000      -1.44130000       0.81260000
H       -0.59350000      -0.60820000       2.06430000
