21
Properties=species:S:1:pos:R:3 gdb_121199=T pbc="F F F"
O       -0.08490000       1.41370000       0.46470000
C       -0.02300000       0.05190000       0.06770000
C       -1.41110000      -0.55090000       0.24640000
C       -1.45740000      -2.03110000      -0.12180000
C       -0.87950000      -2.99550000       0.95880000
C       -2.32130000      -3.31470000       1.42880000
C       -2.85660000      -2.72840000       0.08350000
C       -4.06470000      -1.93090000       0.09380000
C       -5.06300000      -1.25930000       0.11480000
H        0.79030000       1.79760000       0.35860000
H        0.28730000      -0.04280000      -0.98640000
H        0.71280000      -0.50390000       0.67160000
H       -1.72590000      -0.40070000       1.28620000
H       -2.12000000       0.00940000      -0.37310000
H       -1.05130000      -2.16860000      -1.12950000
H       -0.38370000      -3.86460000       0.51790000
H       -0.20710000      -2.55390000       1.69840000
H       -2.57270000      -4.35580000       1.64120000
H       -2.62880000      -2.70050000       2.27760000
H       -2.96000000      -3.53510000      -0.65040000
H       -5.94520000      -0.66900000       0.13200000
