18
Properties=species:S:1:pos:R:3 gdb_114791=T pbc="F F F"
O        0.06800000       1.55050000      -0.05520000
C        0.11490000       0.14570000       0.08970000
C       -1.27640000      -0.46140000      -0.09300000
O       -1.83260000      -0.05240000      -1.36290000
C       -1.99980000      -1.22480000      -2.15020000
C       -0.64950000      -1.92730000      -2.40660000
N       -0.83920000      -2.81330000      -1.20190000
C       -2.29030000      -2.39010000      -1.17400000
C       -1.38900000      -1.97690000      -0.08900000
H       -0.39920000       1.71390000      -0.88360000
H        0.83170000      -0.31120000      -0.60790000
H        0.46900000      -0.06150000       1.10590000
H       -1.92390000      -0.04990000       0.69420000
H       -2.66370000      -0.99940000      -2.98360000
H       -0.66420000      -2.56830000      -3.29230000
H        0.24950000      -1.30500000      -2.41790000
H       -3.12260000      -3.08080000      -1.12660000
H       -1.38210000      -2.49920000       0.86100000
