16
Properties=species:S:1:pos:R:3 gdb_62751=T pbc="F F F"
C        0.03700000       1.56740000      -0.07110000
C        0.11250000       0.06510000       0.01900000
O       -1.00630000      -0.58370000      -0.51300000
C        1.37270000      -0.73370000      -0.16520000
O        2.50030000      -0.02160000       0.40840000
C        1.94940000      -0.11210000       1.69060000
N        2.43300000       0.16520000       2.81110000
C        0.68120000      -0.73060000       1.20410000
O       -0.16820000      -1.57750000       1.86900000
H        0.97720000       2.03240000       0.23070000
H       -0.17740000       1.85470000      -1.10500000
H       -0.76920000       1.94740000       0.56300000
H       -1.37490000      -1.15050000       0.17770000
H        1.56500000      -1.49410000      -0.90930000
H        3.37920000       0.54050000       2.72860000
H        0.32570000      -2.33790000       2.19710000
