19
Properties=species:S:1:pos:R:3 gdb_81732=T pbc="F F F"
C       -1.01650000       1.35720000      -0.21320000
C       -0.36470000      -0.01430000      -0.21770000
C        0.63750000      -0.44570000      -1.34300000
C        1.00470000       0.48570000      -2.49020000
C        1.65600000      -0.65610000      -0.21180000
C        1.81690000       0.56170000       0.62040000
N        0.64830000      -0.28460000       0.87940000
C        2.53200000      -1.78470000      -0.11280000
N        3.24450000      -2.69590000      -0.07750000
H       -0.30640000       2.17660000      -0.35330000
H       -1.75840000       1.42300000      -1.01570000
H       -1.53440000       1.51840000       0.73760000
H       -1.14240000      -0.77290000      -0.10210000
H        0.33320000      -1.41370000      -1.74810000
H        1.34160000       1.46600000      -2.14270000
H        1.80870000       0.05140000      -3.09330000
H        0.14390000       0.64330000      -3.14810000
H        2.54980000       0.51580000       1.41930000
H        1.70450000       1.53990000       0.16300000
