18
Properties=species:S:1:pos:R:3 gdb_114729=T pbc="F F F"
O        0.18460000       1.13550000      -0.57260000
C        0.04370000      -0.23510000      -0.27690000
C       -1.39640000      -0.54170000       0.17480000
N       -2.37920000      -0.04610000      -0.81440000
C       -3.11070000      -1.19290000      -1.35000000
C       -2.31230000      -2.19050000      -2.10780000
C       -2.68220000      -2.47010000      -0.64460000
C       -1.65940000      -2.05050000       0.35850000
O       -1.13830000      -2.73660000       1.20290000
H       -0.54260000       1.33520000      -1.17830000
H        0.30890000      -0.86200000      -1.14360000
H        0.73850000      -0.47910000       0.53140000
H       -1.55080000      -0.04620000       1.13900000
H       -3.03870000       0.56860000      -0.35400000
H       -4.14120000      -1.00190000      -1.62330000
H       -2.82890000      -2.80700000      -2.83460000
H       -1.28260000      -1.96390000      -2.36080000
H       -3.32420000      -3.30980000      -0.41280000
