18
Properties=species:S:1:pos:R:3 gdb_80058=T pbc="F F F"
C       -0.00150000       1.59330000      -0.04670000
C        0.08160000       0.07710000       0.02150000
N        1.07820000      -0.69540000      -0.90200000
C        2.27430000       0.11710000      -0.87950000
N        2.94330000       0.13490000       0.20350000
C        2.22180000      -0.77750000       1.07710000
C        1.31760000      -1.63540000       0.26160000
C        0.67790000      -0.65600000       1.21750000
N        0.10470000      -0.92820000       2.49000000
H        0.94220000       2.07590000       0.21640000
H       -0.30450000       1.92750000      -1.04460000
H       -0.76460000       1.93620000       0.66100000
H       -0.89810000      -0.35350000      -0.21120000
H        2.51040000       0.73030000      -1.74300000
H        2.73170000      -1.15310000       1.95370000
H        1.27660000      -2.71190000       0.15400000
H        0.16260000      -0.12290000       3.10510000
H       -0.87440000      -1.18580000       2.40800000
