20
Properties=species:S:1:pos:R:3 gdb_36825=T pbc="F F F"
C        0.31320000       1.43310000      -0.79500000
C        0.07310000       0.00550000      -0.59890000
C       -0.10320000      -1.17370000      -0.42020000
C       -0.31480000      -2.57730000      -0.21360000
C        0.16710000      -3.24380000       1.06600000
C       -1.30350000      -3.05950000       0.83690000
C        1.40690000       1.98740000       0.10640000
C        1.33920000       3.39360000       0.57060000
N        1.12920000       2.28130000       1.51710000
H        0.58520000       1.61830000      -1.84340000
H       -0.61330000       1.99920000      -0.62040000
H       -0.25180000      -3.18660000      -1.11090000
H        0.58590000      -4.24000000       0.97890000
H        0.65310000      -2.60870000       1.79680000
H       -1.81790000      -2.30010000       1.41350000
H       -1.90440000      -3.92780000       0.59120000
H        2.38420000       1.53750000      -0.05440000
H        2.24870000       3.96580000       0.72940000
H        0.48150000       3.98760000       0.26290000
H        0.13490000       2.16640000       1.70200000
