18
Properties=species:S:1:pos:R:3 gdb_13077=T pbc="F F F"
C       -0.22230000       1.55640000      -0.10760000
C       -0.00610000       0.05020000      -0.03480000
C        1.26090000      -0.50470000      -0.72390000
O        1.79490000      -0.98360000       0.52640000
C        0.61620000      -0.57340000       1.24890000
C        0.94420000       0.33350000       2.43990000
C        1.62460000      -0.38210000       3.51180000
C        2.17500000      -0.98990000       4.39010000
H        0.68400000       2.11310000       0.15110000
H       -0.50680000       1.84860000      -1.12400000
H       -1.02360000       1.88300000       0.56370000
H       -0.92100000      -0.46580000      -0.33720000
H        1.09480000      -1.32020000      -1.43900000
H        1.91540000       0.24490000      -1.18810000
H        0.06290000      -1.44820000       1.61600000
H        1.56540000       1.16940000       2.09950000
H        0.00770000       0.76430000       2.81940000
H        2.67050000      -1.52160000       5.16400000
