19
Properties=species:S:1:pos:R:3 gdb_65603=T pbc="F F F"
O       -0.37010000       0.97360000       0.67180000
C        0.02160000      -0.21750000       0.02770000
C        0.85390000      -1.12880000       0.98260000
C       -0.15600000      -2.05310000       1.64480000
C       -1.40840000      -1.42880000       2.21170000
C       -1.42710000      -2.02840000       0.82630000
C       -1.21610000      -1.08850000      -0.35070000
C        0.82430000       0.13680000      -1.20700000
O        1.05170000       1.27900000      -1.52460000
H       -0.00680000       1.69480000       0.13240000
H        1.57550000      -1.72770000       0.41100000
H        1.41550000      -0.49860000       1.67750000
H        0.21090000      -2.97430000       2.08380000
H       -1.92090000      -1.98280000       2.99060000
H       -1.45320000      -0.35100000       2.31430000
H       -2.00370000      -2.93100000       0.65730000
H       -2.06360000      -0.43120000      -0.56350000
H       -1.01010000      -1.67750000      -1.25440000
H        1.19420000      -0.72010000      -1.80690000
