16
Properties=species:S:1:pos:R:3 gdb_56737=T pbc="F F F"
O       -0.21730000       1.34050000       0.03260000
C        0.03670000      -0.03960000      -0.02610000
C        0.76900000      -0.41360000      -1.26260000
N        1.33170000      -0.71430000      -2.22570000
C        0.77930000      -0.56580000       1.20190000
C       -0.02890000      -1.07900000       2.39230000
C        0.70750000      -2.04830000       1.53590000
C        2.03200000       0.14730000       1.53930000
O        2.42020000       1.14540000       0.97390000
H        0.64850000       1.76690000       0.12660000
H       -0.94170000      -0.53120000      -0.07980000
H        0.35340000      -0.86630000       3.38480000
H       -1.10650000      -1.00390000       2.30170000
H        0.14900000      -2.66640000       0.84160000
H        1.60410000      -2.51690000       1.92720000
H        2.60910000      -0.29160000       2.38260000
