15
Properties=species:S:1:pos:R:3 gdb_5335=T pbc="F F F"
O       -0.13210000       1.40180000      -0.03530000
C        0.06640000       0.05010000      -0.03820000
C        0.00700000      -0.72000000      -1.19020000
N        0.13390000      -2.01840000      -0.74970000
C        0.65940000      -3.37280000      -0.99920000
C        0.79870000      -3.51270000       0.56430000
C        0.35090000      -2.06190000       0.59270000
C        0.31590000      -0.78320000       1.10310000
H       -0.04840000       1.71740000       0.86860000
H       -0.21420000      -0.44080000      -2.20580000
H       -0.04630000      -4.04150000      -1.50050000
H        1.61620000      -3.38070000      -1.53000000
H        0.12750000      -4.24200000       1.02630000
H        1.81960000      -3.70500000       0.90420000
H        0.43590000      -0.45650000       2.12500000
