19
Properties=species:S:1:pos:R:3 gdb_108346=T pbc="F F F"
C        0.09480000       1.36020000      -0.11360000
O       -0.03370000      -0.01370000       0.20110000
C       -1.31050000      -0.54430000       0.07980000
C       -1.33300000      -2.07490000      -0.06580000
O       -2.24130000      -1.98490000      -1.19680000
C       -2.18670000      -0.53660000      -1.19850000
C       -3.31660000       0.19840000      -0.43730000
C       -3.76930000      -0.61390000       0.73830000
C       -2.47520000       0.14520000       0.85040000
H        1.15360000       1.60640000      -0.01030000
H       -0.21900000       1.57010000      -1.14580000
H       -0.48560000       2.00040000       0.56330000
H       -0.35780000      -2.47580000      -0.36390000
H       -1.74770000      -2.66540000       0.75790000
H       -1.88460000      -0.12070000      -2.16200000
H       -3.90590000       1.01130000      -0.84470000
H       -4.59150000      -0.18650000       1.30370000
H       -3.79420000      -1.69530000       0.66510000
H       -2.33270000       0.90150000       1.61280000
