17
Properties=species:S:1:pos:R:3 gdb_56716=T pbc="F F F"
O       -0.50340000       1.16580000       0.11200000
C        0.01620000      -0.15600000       0.00500000
C        0.82190000      -0.30650000      -1.20800000
C        1.49580000      -0.36540000      -2.20130000
C        0.81100000      -0.56340000       1.26680000
C        1.70760000       0.46970000       1.92390000
C        0.41660000       0.08070000       2.58480000
C        1.22100000      -1.94010000       1.27960000
C        1.53850000      -3.10040000       1.27450000
H        0.11450000       1.75920000      -0.32690000
H       -0.85610000      -0.81810000      -0.05750000
H        2.08630000      -0.44060000      -3.08110000
H        2.64110000       0.11860000       2.34590000
H        1.75510000       1.44680000       1.45630000
H       -0.39790000       0.79340000       2.54260000
H        0.45290000      -0.54580000       3.46750000
H        1.82880000      -4.12160000       1.27010000
