19
Properties=species:S:1:pos:R:3 gdb_40431=T pbc="F F F"
C       -0.04460000       1.43940000      -0.27630000
C        1.30890000       0.89030000       0.10350000
C        0.11860000      -0.03260000       0.00750000
C       -0.46870000      -0.64210000       1.23250000
C       -0.42800000      -2.13500000       1.52880000
C       -1.74880000      -1.40730000       1.34130000
O       -2.42100000      -0.94020000       2.48510000
C       -1.46560000      -0.21770000       3.23840000
O       -0.44790000       0.21720000       2.35580000
H       -0.56540000       2.02990000       0.46770000
H       -0.21270000       1.74540000      -1.30290000
H        2.07460000       0.81730000      -0.66090000
H        1.67750000       1.12180000       1.09580000
H        0.09390000      -0.70120000      -0.84760000
H       -0.11400000      -2.78170000       0.71560000
H       -0.14130000      -2.48280000       2.51520000
H       -2.42330000      -1.62630000       0.52320000
H       -1.94620000       0.65240000       3.69760000
H       -1.03450000      -0.86080000       4.02300000
