13
Properties=species:S:1:pos:R:3 gdb_129166=T pbc="F F F"
N       -0.27320000       1.34960000      -0.02910000
C       -0.08990000       0.10840000      -0.16540000
N       -1.01000000      -0.88940000       0.13640000
C       -0.39980000      -2.09500000      -0.10200000
N       -1.07550000      -3.27660000       0.14530000
C       -0.53380000      -4.55680000       0.15290000
O        0.61810000      -4.82920000      -0.03340000
N        0.79590000      -1.97900000      -0.57860000
O        1.00970000      -0.55980000      -0.62570000
H        0.55110000       1.87320000      -0.31260000
H       -1.85090000      -0.71150000       0.65770000
H       -2.07040000      -3.20470000       0.29490000
H       -1.32560000      -5.30070000       0.36510000
