15
Properties=species:S:1:pos:R:3 gdb_18693=T pbc="F F F"
O        0.06780000       0.00620000       0.21770000
C        0.01930000       1.17710000      -0.04030000
O       -1.17820000       1.79370000      -0.19610000
C       -1.23600000       3.03390000      -0.92550000
C       -0.28210000       4.09070000      -0.38020000
C        1.12530000       3.51850000      -0.28430000
N        1.46140000       2.92770000       1.01420000
C        1.24650000       2.03960000      -0.15510000
H       -1.01710000       2.82750000      -1.98130000
H       -2.27770000       3.35320000      -0.85330000
H       -0.30580000       4.96230000      -1.04230000
H       -0.60670000       4.41340000       0.61320000
H        1.91230000       4.03390000      -0.82840000
H        2.45980000       2.99450000       1.19570000
H        2.10390000       1.51770000      -0.56610000
