23
Properties=species:S:1:pos:R:3 gdb_106141=T pbc="F F F"
C        0.15790000       1.44570000      -0.27030000
C       -0.08430000      -0.03240000       0.06890000
C        0.63740000      -0.48980000       1.29620000
C        2.09940000      -0.77470000       1.58800000
C        2.10510000       0.15530000       2.79710000
C        0.56750000      -0.05550000       2.82810000
C        0.40370000      -1.55440000       3.19210000
C        1.02220000      -1.85590000       1.82690000
C        1.04850000      -3.17350000       1.10990000
H        1.22190000       1.63890000      -0.44030000
H       -0.38890000       1.73900000      -1.17210000
H       -0.17230000       2.09590000       0.54670000
H       -1.16340000      -0.20450000       0.18690000
H        0.22850000      -0.65700000      -0.77840000
H        2.89260000      -0.94740000       0.86950000
H        2.66930000      -0.13610000       3.69170000
H        2.37240000       1.17760000       2.51410000
H       -0.09230000       0.69780000       3.25540000
H        0.90940000      -1.91160000       4.09860000
H       -0.64830000      -1.85680000       3.22000000
H        0.04900000      -3.62100000       1.05580000
H        1.41740000      -3.06350000       0.08410000
H        1.70490000      -3.89050000       1.61770000
