21
Properties=species:S:1:pos:R:3 gdb_97935=T pbc="F F F"
C       -0.15190000       1.30730000       0.70010000
C       -0.06210000       0.07000000      -0.21180000
C       -1.35460000      -0.56810000      -0.44180000
C       -2.43470000      -1.07110000      -0.62080000
C       -3.73260000      -1.70660000      -0.83560000
C       -3.85860000      -3.05210000      -0.13420000
C       -4.21750000      -3.10990000       1.33610000
C       -5.20820000      -3.55620000       0.28840000
O       -6.30850000      -2.74480000      -0.01290000
H        0.83820000       1.75080000       0.84390000
H       -0.80880000       2.06440000       0.26320000
H       -0.55500000       1.03810000       1.68030000
H        0.38050000       0.35840000      -1.17430000
H        0.63160000      -0.65770000       0.22930000
H       -4.53960000      -1.05030000      -0.49290000
H       -3.90120000      -1.84450000      -1.91210000
H       -3.15900000      -3.80350000      -0.48760000
H       -3.74610000      -3.85360000       1.96940000
H       -4.42140000      -2.16130000       1.82270000
H       -5.39630000      -4.62540000       0.18940000
H       -6.91020000      -2.76950000       0.73800000
