15
Properties=species:S:1:pos:R:3 gdb_132097=T pbc="F F F"
C       -0.01340000       1.55870000       0.02070000
C       -0.01330000       0.05570000       0.01010000
C       -1.12830000      -0.70440000      -0.14770000
F       -2.33950000      -0.19880000      -0.30960000
N       -1.09030000      -2.04890000      -0.15210000
C        0.10900000      -2.78400000       0.00660000
N        0.01730000      -4.05590000      -0.01490000
N        1.26470000      -2.02770000       0.16990000
C        1.17520000      -0.73070000       0.16690000
H        0.61130000       1.96630000      -0.78210000
H       -1.02400000       1.94940000      -0.11390000
H        0.37360000       1.95380000       0.96670000
H       -1.94160000      -2.57960000      -0.27210000
H        0.94820000      -4.44890000       0.10950000
H        2.11340000      -0.18820000       0.29900000
