20
Properties=species:S:1:pos:R:3 gdb_120396=T pbc="F F F"
C       -0.10250000       1.55170000      -0.02370000
C       -0.08830000       0.02250000      -0.09850000
C        0.85810000      -0.51150000      -1.18000000
C        0.89990000      -2.03190000      -1.24590000
N       -0.32610000      -2.68900000      -1.74770000
C        0.21600000      -3.13920000      -2.92000000
O       -0.23450000      -3.65350000      -3.91120000
C        1.62380000      -2.65840000      -2.48760000
O        2.25860000      -1.75990000      -3.35870000
H        0.89430000       1.94460000       0.20420000
H       -0.41990000       1.99040000      -0.97590000
H       -0.78700000       1.90680000       0.75270000
H        0.20090000      -0.39120000       0.87690000
H       -1.10720000      -0.33940000      -0.29250000
H        0.57410000      -0.11870000      -2.16220000
H        1.87770000      -0.15330000      -0.98950000
H        1.23200000      -2.45140000      -0.28880000
H       -1.28230000      -2.67180000      -1.42300000
H        2.28800000      -3.48780000      -2.21050000
H        1.99530000      -1.99920000      -4.25490000
