17
Properties=species:S:1:pos:R:3 gdb_74159=T pbc="F F F"
N        0.09290000       1.34980000      -0.10680000
C       -0.00390000      -0.01740000      -0.01570000
C       -1.10170000      -0.80480000      -0.01690000
C       -0.69000000      -2.21710000       0.00070000
O       -1.36350000      -3.22320000      -0.08580000
N        0.70500000      -2.20380000       0.15030000
C        1.21880000      -0.87350000       0.02310000
C        2.45040000      -0.55110000      -0.79550000
C        2.49780000      -0.44610000       0.70910000
H        0.90810000       1.77790000       0.30530000
H       -0.75380000       1.86420000       0.08320000
H       -2.13620000      -0.49690000      -0.04590000
H        1.22770000      -3.00370000      -0.16990000
H        2.96490000      -1.38180000      -1.26660000
H        2.43700000       0.36060000      -1.38300000
H        2.54970000       0.53690000       1.16790000
H        3.02730000      -1.21550000       1.25980000
