13
Properties=species:S:1:pos:R:3 gdb_5176=T pbc="F F F"
O       -0.18580000      -0.02900000       0.00050000
C       -0.04140000       1.18030000       0.00770000
N        1.16060000       1.81950000       0.00170000
C        2.40640000       1.19640000      -0.01320000
N        3.54770000       1.84200000      -0.01780000
C        4.50160000       0.84420000      -0.03300000
C        3.91490000      -0.39170000      -0.03750000
N        2.55370000      -0.15150000      -0.02450000
H       -0.88810000       1.88770000       0.02020000
H        1.19280000       2.82810000       0.00890000
H        5.55400000       1.08100000      -0.03990000
H        4.31350000      -1.39170000      -0.04840000
H        1.77130000      -0.79030000      -0.02220000
