15
Properties=species:S:1:pos:R:3 gdb_42203=T pbc="F F F"
O        0.24090000       0.48870000       1.18290000
C        0.02470000       1.31060000       0.32370000
C        1.11850000       1.78170000      -0.55530000
N        1.97620000       2.12730000      -1.24910000
C       -1.29890000       1.90580000       0.07310000
C       -1.72230000       2.48460000      -1.23490000
N       -1.47490000       3.42500000      -0.15320000
C       -2.68030000       3.34370000       0.75880000
C       -2.46160000       1.83730000       1.05450000
H       -0.98150000       2.53750000      -2.02630000
H       -2.74240000       2.29210000      -1.56340000
H       -2.53020000       3.99330000       1.62140000
H       -3.60870000       3.62170000       0.25130000
H       -3.26480000       1.14170000       0.80150000
H       -2.12940000       1.64170000       2.07410000
