17
Properties=species:S:1:pos:R:3 gdb_70651=T pbc="F F F"
N        0.20590000       1.30290000       0.03520000
C       -0.02980000      -0.11130000      -0.01900000
C       -0.59410000      -0.86730000      -1.20280000
C       -1.38880000      -0.74960000       0.07980000
C       -1.24920000      -1.90340000       1.05330000
O        0.15310000      -2.18370000       1.11090000
C        0.84690000      -0.95990000       0.91120000
C        2.18070000      -1.25210000       0.36810000
N        3.23410000      -1.42870000      -0.07120000
H        0.94530000       1.56870000      -0.60930000
H       -0.62250000       1.82100000      -0.23490000
H       -0.92410000      -0.26540000      -2.04230000
H       -0.17400000      -1.83340000      -1.46560000
H       -2.28950000      -0.14630000       0.10770000
H       -1.63340000      -1.61940000       2.04470000
H       -1.74240000      -2.82730000       0.73730000
H        0.97380000      -0.39960000       1.85040000
