13
Properties=species:S:1:pos:R:3 gdb_23927=T pbc="F F F"
F        0.14080000       0.05360000       0.10120000
C       -0.01250000       1.38640000       0.04140000
F        1.20770000       1.92400000      -0.11600000
F       -0.72310000       1.65940000      -1.06460000
C       -0.69220000       1.92970000       1.27330000
C       -1.97570000       1.19530000       1.71850000
O       -1.36490000       0.79330000       2.95950000
C       -0.12610000       1.44880000       2.62720000
H       -0.78430000       3.01000000       1.15940000
H       -2.84830000       1.83870000       1.87530000
H       -2.26400000       0.33800000       1.10020000
H        0.71170000       0.74580000       2.56220000
H        0.12400000       2.24610000       3.33560000
