14
Properties=species:S:1:pos:R:3 gdb_127350=T pbc="F F F"
C       -0.01580000       1.49450000      -0.03950000
N       -0.00840000       0.04780000       0.02400000
C       -0.03660000      -0.82400000      -1.04040000
N       -0.01880000      -2.10710000      -0.70870000
C        0.02250000      -2.04290000       0.64300000
C        0.03080000      -0.76200000       1.14190000
C        0.07460000      -0.93560000       2.54090000
N        0.09110000      -2.22180000       2.84140000
O        0.05760000      -2.94610000       1.62870000
H        0.89150000       1.90890000       0.41070000
H       -0.05870000       1.80150000      -1.08610000
H       -0.88780000       1.90190000       0.48120000
H       -0.07020000      -0.45180000      -2.05470000
H        0.09580000      -0.22290000       3.35230000
