16
Properties=species:S:1:pos:R:3 gdb_72988=T pbc="F F F"
O        0.10270000       1.43980000       0.02190000
C       -0.02060000       0.07450000       0.01430000
C        0.65650000      -0.78570000      -1.04400000
N       -0.42740000      -1.82680000      -0.90340000
C       -1.19510000      -0.91400000      -0.02730000
C       -0.34300000      -0.79460000       1.23220000
O        0.45610000      -1.86280000       1.63620000
C       -0.91480000      -0.03390000       2.31050000
C       -1.35150000       0.68450000       3.17220000
H       -0.06360000       1.75020000       0.92270000
H        0.64160000      -0.29470000      -2.02060000
H        1.66250000      -1.15480000      -0.82380000
H       -0.90410000      -1.98740000      -1.78350000
H       -2.27610000      -0.84480000      -0.04260000
H        0.35000000      -2.52440000       0.93160000
H       -1.76520000       1.27390000       3.95330000
