19
Properties=species:S:1:pos:R:3 gdb_82443=T pbc="F F F"
C       -0.00660000       1.46380000       0.11440000
C       -0.04380000      -0.03160000       0.00930000
C       -1.27200000      -0.92540000      -0.19630000
C       -0.35510000      -2.10510000       0.21670000
C        0.60760000      -1.06590000       0.92920000
C        1.15540000      -0.82810000      -0.48370000
O        2.29620000      -0.18340000      -0.89920000
C        0.67780000      -2.19950000      -0.94220000
O        1.67420000      -3.19430000      -0.77950000
H        1.00220000       1.81340000       0.35200000
H       -0.30230000       1.93140000      -0.83190000
H       -0.68900000       1.82160000       0.89320000
H       -2.03780000      -0.71690000       0.55750000
H       -1.73710000      -0.96780000      -1.18940000
H       -0.74800000      -3.02120000       0.65310000
H        1.02100000      -0.96460000       1.92210000
H        2.99760000      -0.84600000      -0.92790000
H        0.29860000      -2.32410000      -1.96220000
H        1.94620000      -3.17420000       0.14720000
