21
Properties=species:S:1:pos:R:3 gdb_116133=T pbc="F F F"
C        0.07700000       1.53550000      -0.01550000
C       -0.02600000       0.03680000       0.02340000
C       -1.18060000      -0.62890000      -0.01470000
C       -1.25260000      -2.13500000      -0.03590000
C       -2.31400000      -2.63330000      -1.01880000
O       -3.58160000      -2.19300000      -0.55370000
C        0.12760000      -2.70390000      -0.38160000
O        1.14190000      -2.08990000       0.39010000
C        1.28280000      -0.71300000       0.10550000
H        0.69130000       1.87140000      -0.86150000
H       -0.90810000       1.99970000      -0.10840000
H        0.55590000       1.92730000       0.89130000
H       -2.12720000      -0.09650000      -0.05170000
H       -1.54850000      -2.50230000       0.95750000
H       -2.09910000      -2.23800000      -2.02470000
H       -2.27520000      -3.73360000      -1.07850000
H       -4.24190000      -2.42230000      -1.21370000
H        0.18410000      -3.77470000      -0.16330000
H        0.32790000      -2.56580000      -1.45900000
H        1.84860000      -0.56790000      -0.83520000
H        1.90510000      -0.30090000       0.90990000
