15
Properties=species:S:1:pos:R:3 gdb_24974=T pbc="F F F"
N       -0.03220000       1.24870000      -0.08470000
C       -0.03770000      -0.00920000       0.00030000
N       -1.14840000      -0.84940000      -0.07630000
C       -0.66360000      -2.17790000      -0.18790000
C        0.64380000      -2.09160000       0.03790000
O        1.32670000      -3.19540000       0.36780000
C        0.31910000      -4.24620000       0.16330000
C       -1.09560000      -3.56880000       0.17190000
O        1.10610000      -0.82720000       0.16810000
H        0.91010000       1.62120000      -0.01120000
H       -1.93040000      -0.49230000      -0.60360000
H        0.51820000      -4.69910000      -0.81230000
H        0.46600000      -4.98590000       0.94990000
H       -1.57390000      -3.61520000       1.16090000
H       -1.75650000      -4.07240000      -0.54070000
