15
Properties=species:S:1:pos:R:3 gdb_28598=T pbc="F F F"
N        0.10640000       1.25340000      -0.37800000
C       -0.03840000      -0.08230000      -0.11300000
N       -1.08040000      -0.69460000       0.36330000
C       -0.69760000      -2.03200000       0.35700000
C        0.56100000      -2.15890000      -0.12270000
O        1.00130000      -0.88020000      -0.43890000
C        1.45890000      -3.28740000      -0.35410000
C        2.61730000      -3.22670000      -1.25940000
O        2.80490000      -3.19670000       0.15390000
H        1.05360000       1.59840000      -0.32990000
H       -0.56320000       1.82800000       0.11150000
H       -1.36000000      -2.80960000       0.70440000
H        0.98320000      -4.25280000      -0.18730000
H        2.95090000      -4.13370000      -1.76270000
H        2.83310000      -2.29510000      -1.77910000
