21
Properties=species:S:1:pos:R:3 gdb_119750=T pbc="F F F"
C       -2.38680000       1.05830000       1.43000000
O       -2.23560000      -0.23790000       0.90380000
C       -0.94610000      -0.77670000       1.14090000
C       -0.90520000      -2.17410000       0.61940000
C       -0.00810000      -2.75490000      -0.17960000
C        1.21440000      -2.19200000      -0.82910000
C       -0.39340000      -4.20010000      -0.37370000
O       -1.59340000      -4.39160000       0.36030000
C       -1.95960000      -3.17790000       1.00990000
H       -3.40590000       1.38420000       1.20870000
H       -2.23520000       1.07780000       2.52130000
H       -1.67950000       1.77020000       0.97500000
H       -0.17210000      -0.15080000       0.66890000
H       -0.74070000      -0.77160000       2.22820000
H        2.12170000      -2.68850000      -0.46170000
H        1.18850000      -2.35280000      -1.91410000
H        1.32450000      -1.11990000      -0.64970000
H       -0.55830000      -4.44140000      -1.43740000
H        0.38970000      -4.88780000      -0.01060000
H       -2.00080000      -3.33110000       2.10170000
H       -2.96360000      -2.86610000       0.69000000
