19
Properties=species:S:1:pos:R:3 gdb_51010=T pbc="F F F"
O        0.17830000      -0.05670000      -0.00110000
C        0.04540000       1.13210000       0.00750000
O        1.09880000       1.96390000       0.00060000
C        0.96610000       3.38410000       0.01060000
C       -0.14850000       4.06710000      -0.73280000
C       -0.13100000       4.05800000       0.78770000
C        2.33470000       3.99430000      -0.00150000
C        3.48780000       3.36330000       0.73650000
C        3.47040000       3.37240000      -0.77340000
H       -0.93450000       1.63650000       0.02160000
H        0.08840000       4.98930000      -1.25240000
H       -0.89250000       3.45880000      -1.23510000
H       -0.86330000       3.44340000       1.29950000
H        0.11780000       4.97390000       1.31280000
H        2.29400000       5.07960000       0.00550000
H        4.17860000       4.01950000       1.25390000
H        3.30880000       2.41330000       1.22540000
H        3.28000000       2.42830000      -1.26940000
H        4.14910000       4.03480000      -1.29870000
