19
Properties=species:S:1:pos:R:3 gdb_110267=T pbc="F F F"
C        0.11330000       1.32910000       0.15980000
O       -0.30340000       0.02200000      -0.18920000
C        0.49510000      -0.56440000      -1.19680000
C        1.78140000      -1.36930000      -0.80330000
C        0.83360000      -2.47680000      -0.22380000
O        0.19220000      -2.32610000       0.99910000
C        0.15500000      -2.03210000      -1.56900000
C        1.58070000      -2.10640000      -2.16680000
O        1.76740000      -1.41250000      -3.37550000
H        1.12030000       1.33350000       0.59990000
H        0.11240000       1.98960000      -0.71900000
H       -0.59910000       1.71160000       0.89380000
H        0.60810000       0.13040000      -2.03340000
H        2.71630000      -0.99480000      -0.38290000
H        1.25230000      -3.48800000      -0.23810000
H       -0.21920000      -1.44970000       0.98910000
H       -0.76600000      -2.40410000      -2.01760000
H        2.00930000      -3.11500000      -2.21150000
H        2.71320000      -1.35850000      -3.54420000
