19
Properties=species:S:1:pos:R:3 gdb_46538=T pbc="F F F"
O       -0.29950000       0.30210000      -1.09360000
C       -0.20250000       1.31110000      -0.45970000
C       -1.19740000       1.92490000       0.52140000
C       -0.73630000       3.38010000       0.64270000
C       -1.55320000       4.38000000      -0.23710000
C       -2.31260000       4.83140000       1.03900000
C       -1.19750000       4.17160000       1.89540000
C        0.76270000       3.23050000       0.36740000
O        0.90120000       2.10880000      -0.52090000
H       -2.22000000       1.78540000       0.16760000
H       -1.09920000       1.38940000       1.47460000
H       -0.91760000       5.17480000      -0.63860000
H       -2.13940000       3.95780000      -1.05730000
H       -2.47610000       5.90260000       1.17010000
H       -3.27200000       4.31980000       1.15140000
H       -1.49980000       3.58600000       2.76770000
H       -0.44210000       4.89850000       2.21210000
H        1.20480000       4.10240000      -0.12140000
H        1.32250000       3.02270000       1.28930000
