15
Properties=species:S:1:pos:R:3 gdb_4583=T pbc="F F F"
N       -0.01540000       1.42490000       0.12020000
C        0.01800000       0.02170000       0.04380000
C       -1.15020000      -0.74240000       0.04250000
N       -1.18020000      -2.07600000       0.03220000
C       -0.02280000      -2.73950000       0.03070000
N       -0.09910000      -4.13130000       0.08870000
C        1.21180000      -2.07160000       0.02700000
C        1.22530000      -0.68840000       0.03140000
H        0.76100000       1.87450000      -0.34630000
H       -0.88700000       1.82220000      -0.20470000
H       -2.11910000      -0.24360000       0.04580000
H       -1.01400000      -4.47060000      -0.17430000
H        0.64500000      -4.62360000      -0.38360000
H        2.14010000      -2.63320000       0.02690000
H        2.17010000      -0.15200000       0.03220000
