19
Properties=species:S:1:pos:R:3 gdb_46565=T pbc="F F F"
O       -0.13990000      -0.05880000      -0.21490000
C       -0.03880000       1.12930000      -0.06080000
C       -1.25430000       2.11260000       0.02400000
C       -0.70970000       3.54980000       0.30240000
C        0.68810000       3.22870000       0.79510000
C        2.15620000       3.74920000       0.85320000
C        2.22230000       2.21650000       1.20720000
C        0.99660000       2.45600000       2.12400000
C        1.21320000       1.99800000       0.03360000
H       -1.83670000       2.04200000      -0.89960000
H       -1.90840000       1.75590000       0.82630000
H       -0.67110000       4.13580000      -0.62230000
H       -1.32700000       4.09940000       1.01860000
H        2.60540000       4.05340000      -0.09640000
H        2.41300000       4.44030000       1.66070000
H        3.11870000       1.63890000       1.43250000
H        1.15680000       3.07230000       3.01270000
H        0.38260000       1.58220000       2.35800000
H        1.60710000       2.18910000      -0.97360000
