14
Properties=species:S:1:pos:R:3 gdb_27701=T pbc="F F F"
C        0.07030000       1.41830000       0.02000000
C       -0.03750000      -0.06210000      -0.01640000
N       -1.11310000      -0.77640000      -0.19170000
C       -0.68240000      -2.08610000      -0.14450000
N       -1.55190000      -3.11720000      -0.34880000
C        0.67710000      -2.10280000       0.06900000
O        1.08700000      -0.77580000       0.14750000
C        1.60300000      -3.13950000       0.21110000
N        2.32890000      -4.03930000       0.32700000
H        0.73550000       1.77690000      -0.77180000
H       -0.91960000       1.85260000      -0.11710000
H        0.48500000       1.75340000       0.97580000
H       -2.52160000      -2.89310000      -0.18830000
H       -1.26730000      -4.02980000      -0.02910000
