21
Properties=species:S:1:pos:R:3 gdb_106368=T pbc="F F F"
C        0.03370000       1.51390000       0.08900000
C        0.06390000      -0.01150000       0.06460000
C        0.93560000      -0.62400000      -1.08820000
C        1.94390000      -1.38740000      -0.20610000
C        3.19750000      -1.98740000      -0.78530000
O        4.04020000      -2.50640000       0.22470000
C        1.04510000      -2.10470000       0.83140000
C        0.85930000      -0.63300000       1.23960000
O        2.24420000      -0.37940000       0.83280000
H        1.05030000       1.90900000       0.17530000
H       -0.41210000       1.91640000      -0.82660000
H       -0.55220000       1.88740000       0.93630000
H       -0.95740000      -0.40670000       0.04330000
H        0.37470000      -1.27950000      -1.75970000
H        1.43120000       0.14670000      -1.68460000
H        2.94110000      -2.81600000      -1.45490000
H        3.71260000      -1.22010000      -1.38730000
H        4.07850000      -1.82450000       0.90700000
H        0.18050000      -2.67340000       0.47940000
H        1.63840000      -2.67130000       1.54850000
H        0.63130000      -0.30980000       2.25600000
