22
Properties=species:S:1:pos:R:3 gdb_60180=T pbc="F F F"
C       -0.51110000       1.37690000      -0.18640000
C        0.07950000      -0.02260000       0.03740000
C        0.81980000      -0.50360000      -1.21730000
C        1.01090000      -0.08110000       1.26400000
C        0.31110000       0.18670000       2.57570000
N       -0.52630000      -0.89510000       3.10600000
C        0.69490000      -0.50200000       3.85250000
C        1.76550000      -1.45740000       3.93550000
C        2.68040000      -2.23180000       4.03110000
H        0.28230000       2.11440000      -0.35990000
H       -1.16850000       1.38800000      -1.06210000
H       -1.10190000       1.71820000       0.66940000
H       -0.74860000      -0.71730000       0.23180000
H        1.66940000       0.15080000      -1.44810000
H        1.20820000      -1.51880000      -1.08630000
H        0.15860000      -0.50640000      -2.09040000
H        1.47340000      -1.07160000       1.31800000
H        1.82810000       0.64380000       1.14200000
H       -0.05420000       1.20360000       2.71300000
H       -1.34340000      -0.52250000       3.58280000
H        0.54970000       0.07860000       4.76160000
H        3.48110000      -2.92460000       4.11010000
