19
Properties=species:S:1:pos:R:3 gdb_17570=T pbc="F F F"
C       -0.03510000       1.52910000       0.05940000
C        0.04210000       0.02050000       0.08010000
C        0.85420000      -0.82140000      -0.98130000
C        0.67630000      -1.92250000       0.10460000
C        0.86410000      -0.77620000       1.13400000
N       -0.79380000      -2.18540000      -0.04710000
C       -1.64690000      -1.74300000       1.07120000
C       -1.27510000      -0.77690000       0.00570000
H        0.96290000       1.97780000       0.02940000
H       -0.58710000       1.88410000      -0.81870000
H       -0.54870000       1.91110000       0.94890000
H        0.38250000      -1.01140000      -1.94870000
H        1.88500000      -0.48060000      -1.10570000
H        1.26420000      -2.83900000       0.12770000
H        1.90250000      -0.44030000       1.16150000
H        0.49720000      -0.87340000       2.15660000
H       -2.64210000      -2.17860000       1.03630000
H       -1.24630000      -1.65520000       2.07440000
H       -2.00850000      -0.47210000      -0.73810000
