21
Properties=species:S:1:pos:R:3 gdb_65722=T pbc="F F F"
C       -0.13860000       1.55630000       0.12320000
C        0.06130000       0.04460000       0.00780000
C       -1.26820000      -0.65390000      -0.33750000
C       -1.87700000      -0.19700000      -1.64410000
O       -3.02620000       0.13430000      -1.78970000
C        1.24680000      -0.46250000      -0.90320000
C        1.83810000      -1.20800000       0.29810000
C        2.15610000      -0.23810000       1.39820000
C        0.72950000      -0.66850000       1.20360000
H        0.78540000       2.06560000       0.40930000
H       -0.47220000       1.98960000      -0.82680000
H       -0.89900000       1.79170000       0.87650000
H       -1.08830000      -1.73600000      -0.41900000
H       -2.00960000      -0.50080000       0.45400000
H       -1.17350000      -0.19150000      -2.50920000
H        0.91250000      -1.12190000      -1.70740000
H        1.88480000       0.31410000      -1.33830000
H        2.26770000      -2.20160000       0.26760000
H        2.64190000      -0.66410000       2.27040000
H        2.48020000       0.77310000       1.16500000
H        0.18010000      -1.17660000       1.98880000
