23
Properties=species:S:1:pos:R:3 gdb_119910=T pbc="F F F"
C       -0.18030000       1.48470000       0.24440000
C       -0.18080000      -0.02830000       0.36850000
O       -1.31050000      -0.53760000      -0.33980000
C       -1.40860000      -1.93340000      -0.27320000
C       -2.36380000      -2.46190000       0.77720000
O       -2.98770000      -1.52570000       1.60300000
C       -2.71990000      -2.55940000      -0.70180000
C       -3.82040000      -1.68110000      -1.26000000
C       -2.61800000      -3.93420000      -1.33520000
H        0.68860000       1.90620000       0.75840000
H       -0.14200000       1.78340000      -0.80680000
H       -1.08370000       1.91300000       0.68900000
H        0.73980000      -0.45340000      -0.06100000
H       -0.22410000      -0.34020000       1.42240000
H       -0.47770000      -2.45560000      -0.49710000
H       -2.13270000      -3.37720000       1.31500000
H       -2.73340000      -0.65720000       1.26350000
H       -3.88250000      -0.72040000      -0.74820000
H       -3.65570000      -1.48200000      -2.32480000
H       -4.79050000      -2.17970000      -1.15680000
H       -3.55790000      -4.48590000      -1.21760000
H       -2.40200000      -3.86180000      -2.40790000
H       -1.82390000      -4.53350000      -0.87720000
