20
Properties=species:S:1:pos:R:3 gdb_72337=T pbc="F F F"
C       -0.03430000       1.46410000      -0.01030000
C       -0.02210000      -0.05740000      -0.01960000
C       -1.35160000      -0.69700000      -0.49930000
C       -1.67820000      -1.69600000       0.59080000
C       -0.77200000      -1.72830000       1.57280000
C        0.33240000      -0.74770000       1.32990000
N        1.68420000      -1.24430000       0.79900000
C        1.41140000      -2.10960000      -0.36440000
C        1.29550000      -0.65270000      -0.54880000
H        0.90040000       1.86520000       0.39560000
H       -0.15810000       1.86430000      -1.02360000
H       -0.85980000       1.84420000       0.60160000
H       -2.15110000       0.04770000      -0.61210000
H       -1.24770000      -1.18470000      -1.47750000
H       -2.57250000      -2.31090000       0.55530000
H       -0.81550000      -2.37660000       2.44100000
H        0.53790000      -0.08540000       2.17520000
H        2.31430000      -2.58380000      -0.73780000
H        0.53190000      -2.74650000      -0.36870000
H        2.01410000      -0.08610000      -1.13580000
