20
Properties=species:S:1:pos:R:3 gdb_62163=T pbc="F F F"
C       -0.00090000       1.48130000       0.12440000
C        0.07810000      -0.04370000      -0.02020000
C        0.85630000      -0.67810000       1.13150000
O        2.18950000      -0.17010000       1.10920000
C        2.91210000      -0.29490000       2.23940000
N        4.13020000       0.03280000       2.24850000
C       -1.31940000      -0.68660000      -0.11670000
C       -2.04510000      -0.29190000      -1.38490000
O       -3.16460000       0.14530000      -1.43440000
H        0.99960000       1.91270000       0.19690000
H       -0.50950000       1.93520000      -0.73150000
H       -0.56120000       1.75810000       1.02530000
H        0.62910000      -0.28040000      -0.94090000
H        0.37720000      -0.44200000       2.09280000
H        0.88010000      -1.77110000       1.02220000
H        2.33260000      -0.68190000       3.08970000
H        4.51940000      -0.10220000       3.17920000
H       -1.21640000      -1.78210000      -0.14030000
H       -1.94840000      -0.42510000       0.74040000
H       -1.44840000      -0.44830000      -2.31520000
