18
Properties=species:S:1:pos:R:3 gdb_98366=T pbc="F F F"
C       -0.39790000       0.95850000       1.34850000
O        0.08800000      -0.38400000       1.49990000
C        0.83690000      -0.84270000       0.48930000
O        1.09840000      -0.21560000      -0.50600000
C        1.28870000      -2.29350000       0.71480000
C        2.69440000      -2.51790000       0.17170000
O        1.27860000      -2.66370000       2.08680000
C        0.11560000      -3.10380000       2.61260000
N        0.04680000      -3.37730000       3.84110000
H       -1.02900000       1.03980000       0.46020000
H       -0.97160000       1.16720000       2.25070000
H        0.43720000       1.65630000       1.25320000
H        0.57490000      -2.91890000       0.15620000
H        3.42010000      -1.95420000       0.76370000
H        2.94880000      -3.57840000       0.22650000
H        2.74740000      -2.17890000      -0.86360000
H       -0.69110000      -3.19990000       1.87330000
H       -0.88460000      -3.71880000       4.06860000
