16
Properties=species:S:1:pos:R:3 gdb_67422=T pbc="F F F"
O       -0.23000000       1.37950000      -0.00330000
C       -0.03710000       0.03280000       0.01820000
C        0.06130000      -1.03330000      -1.01480000
N        1.29440000      -1.57540000      -0.46980000
C        0.92300000      -0.95080000       0.83440000
C       -0.35080000      -1.68950000       1.33210000
C       -1.06650000      -1.08000000       0.12450000
C       -2.44610000      -1.05880000      -0.19330000
C       -3.62050000      -1.05090000      -0.46150000
H        0.46740000       1.78330000      -0.53370000
H       -0.21670000      -1.04620000      -2.06060000
H        1.31960000      -2.59570000      -0.42570000
H        1.73500000      -0.69100000       1.51040000
H       -0.29190000      -2.78130000       1.41040000
H       -0.73120000      -1.26690000       2.26480000
H       -4.65640000      -1.03520000      -0.69200000
