23
Properties=species:S:1:pos:R:3 gdb_116155=T pbc="F F F"
C       -0.06710000       1.58850000      -0.01370000
C        0.00470000       0.05940000      -0.00840000
C        0.71740000      -0.51440000      -1.22770000
C        0.85480000      -2.04180000      -1.19990000
C        1.40510000      -2.54630000      -2.54080000
C        1.39480000      -4.05980000      -2.67520000
O        0.61620000      -2.01590000      -3.60760000
C        0.56010000      -0.61680000      -3.56290000
O       -0.02500000      -0.12970000      -2.38650000
H        0.93510000       2.03160000       0.00330000
H       -0.57620000       1.94560000      -0.91220000
H       -0.61040000       1.95980000       0.86030000
H        0.52690000      -0.29390000       0.88930000
H       -1.00660000      -0.36380000       0.02640000
H        1.72830000      -0.07040000      -1.30000000
H        1.51570000      -2.34810000      -0.38080000
H       -0.13180000      -2.48820000      -1.02700000
H        2.43970000      -2.17450000      -2.65640000
H        0.37520000      -4.44420000      -2.57490000
H        1.77920000      -4.35850000      -3.65420000
H        2.01750000      -4.51770000      -1.90050000
H        1.58010000      -0.19780000      -3.67360000
H       -0.07100000      -0.29400000      -4.39370000
