16
Properties=species:S:1:pos:R:3 gdb_5088=T pbc="F F F"
C       -0.07190000       1.52740000      -0.02790000
C       -0.00970000       0.03380000       0.00920000
C        0.05040000      -0.83170000      -1.03850000
O        0.07560000      -2.12220000      -0.62260000
C        0.04810000      -2.09080000       0.75960000
N        0.05770000      -3.27710000       1.49550000
C       -0.01220000      -0.79780000       1.18670000
N       -0.14650000      -0.35480000       2.51060000
H        0.80860000       1.98760000       0.43910000
H       -0.12390000       1.89450000      -1.05680000
H       -0.95030000       1.90250000       0.50990000
H        0.08270000      -0.67660000      -2.10540000
H       -0.78730000      -3.82790000       1.37190000
H        0.84960000      -3.87050000       1.26720000
H        0.02910000      -1.11450000       3.15880000
H        0.46720000       0.42150000       2.72810000
