15
Properties=species:S:1:pos:R:3 gdb_1780=T pbc="F F F"
C       -0.01310000       1.37690000      -0.27080000
C        0.34360000      -0.07560000      -0.08660000
O        1.70960000      -0.41760000       0.11060000
C        0.79810000      -0.66610000       1.20120000
C        0.97890000       0.10960000       2.47970000
C        0.50570000      -2.13100000       1.35410000
O        0.18390000      -2.65660000       2.38850000
H        0.53800000       2.02410000       0.41290000
H        0.22200000       1.68660000      -1.29430000
H       -1.08620000       1.52650000      -0.11350000
H       -0.17430000      -0.75050000      -0.77350000
H        1.15070000       1.16920000       2.29110000
H        0.09440000      -0.00730000       3.11150000
H        1.83340000      -0.28530000       3.03700000
H        0.62090000      -2.70190000       0.40540000
