15
Properties=species:S:1:pos:R:3 gdb_54902=T pbc="F F F"
N        0.01400000       1.28880000       0.28220000
C        0.08440000      -0.02720000      -0.05520000
O        1.11330000      -0.58200000      -0.37630000
C       -1.27320000      -0.77170000      -0.02890000
N       -1.12220000      -2.16340000      -0.36660000
C       -1.45080000      -2.99660000       0.69950000
O       -1.27900000      -4.19220000       0.75330000
C       -2.04390000      -2.09420000       1.73400000
C       -1.92560000      -0.82790000       1.33710000
H        0.85210000       1.84360000       0.22040000
H       -0.85670000       1.75260000       0.47340000
H       -1.93590000      -0.25170000      -0.74050000
H       -0.35370000      -2.43020000      -0.96500000
H       -2.46490000      -2.47090000       2.65490000
H       -2.25220000       0.05980000       1.86350000
