17
Properties=species:S:1:pos:R:3 gdb_62461=T pbc="F F F"
O       -0.10670000       1.39840000      -0.05810000
C       -0.03100000       0.00190000      -0.00400000
C        1.05290000      -0.57990000      -0.75670000
C        1.97990000      -1.04500000      -1.36620000
C       -0.46870000      -0.74490000       1.25520000
C       -1.21960000       0.05560000       2.30350000
O       -2.31130000       0.68760000       1.65150000
C       -2.58040000       0.06140000       0.40380000
C       -1.34730000      -0.74160000       0.02720000
H        0.70250000       1.75510000       0.32450000
H        2.79040000      -1.45480000      -1.91650000
H        0.09710000      -1.61650000       1.56120000
H       -1.56570000      -0.62500000       3.09770000
H       -0.61580000       0.84210000       2.77240000
H       -3.44230000      -0.62020000       0.47870000
H       -2.82370000       0.84980000      -0.31580000
H       -1.46240000      -1.61100000      -0.60790000
