15
Properties=species:S:1:pos:R:3 gdb_42760=T pbc="F F F"
O        0.00150000      -0.01610000      -0.03320000
C       -0.04180000       1.17040000      -0.02270000
C       -1.07370000       2.31200000       0.05910000
C       -0.04060000       3.00510000       0.98560000
C        1.01470000       2.34600000       0.02350000
C        0.65560000       3.04240000      -1.31160000
N       -0.84600000       3.02900000      -1.21860000
C        2.39630000       2.16200000       0.36560000
N        3.50760000       2.00230000       0.64350000
H       -2.11910000       2.17260000       0.32140000
H       -0.06450000       4.09550000       0.98630000
H       -0.00880000       2.59530000       1.99520000
H        1.03480000       4.06750000      -1.35660000
H        1.03620000       2.49010000      -2.17520000
H       -1.24070000       2.49990000      -1.99040000
