14
Properties=species:S:1:pos:R:3 gdb_20654=T pbc="F F F"
C        0.01580000       1.50280000      -0.09610000
C       -0.01900000       0.01170000       0.00320000
C       -1.13670000      -0.72100000       0.17580000
C       -1.03570000      -2.15360000       0.25590000
N        0.05770000      -2.82700000       0.17580000
O        1.22340000      -2.08630000      -0.00270000
C        1.25480000      -0.70240000      -0.09470000
N        2.36200000      -0.10060000      -0.25790000
H        0.65940000       1.91960000       0.68510000
H        0.46250000       1.80880000      -1.04730000
H       -0.98630000       1.92850000      -0.00950000
H       -2.11250000      -0.25430000       0.25590000
H       -1.91940000      -2.76940000       0.39470000
H        3.13370000      -0.76800000      -0.30220000
