15
Properties=species:S:1:pos:R:3 gdb_32518=T pbc="F F F"
O       -0.05490000       1.41360000       0.00710000
C        0.01120000      -0.00170000       0.00180000
C       -1.38710000      -0.53350000       0.01210000
C       -2.52520000       0.20200000       0.02370000
O       -3.62670000      -0.61420000       0.03070000
C       -3.18370000      -1.88040000       0.02360000
C       -1.81440000      -1.91550000       0.01190000
C       -0.99720000      -3.12760000       0.00160000
O       -1.43820000      -4.25640000       0.00220000
H        0.84280000       1.75720000       0.00070000
H        0.54490000      -0.37460000      -0.88820000
H        0.56030000      -0.38070000       0.87970000
H       -2.71770000       1.25970000       0.02830000
H       -3.92710000      -2.66010000       0.02770000
H        0.10160000      -2.94910000      -0.00710000
