17
Properties=species:S:1:pos:R:3 gdb_93595=T pbc="F F F"
C       -0.03570000       1.54260000      -0.02030000
C        0.02420000       0.01460000      -0.00340000
C        0.74480000      -0.53050000      -1.23300000
O        0.83610000      -1.96690000      -1.20070000
C        1.05310000      -2.50410000       0.02160000
N        1.05580000      -1.95460000       1.16200000
C        0.73760000      -0.53280000       1.24000000
C        1.30950000      -3.92710000      -0.08370000
N        1.51220000      -5.06120000      -0.16670000
H        0.97030000       1.97700000      -0.04000000
H       -0.57900000       1.91210000      -0.89590000
H       -0.54410000       1.92180000       0.87140000
H       -0.99760000      -0.38640000      -0.01510000
H        0.21900000      -0.29590000      -2.16100000
H        1.76290000      -0.12360000      -1.29820000
H        1.67450000       0.01480000       1.41680000
H        0.12590000      -0.37960000       2.13570000
