18
Properties=species:S:1:pos:R:3 gdb_23549=T pbc="F F F"
C       -0.18380000       1.34570000       0.02880000
O        0.25520000       0.00180000       0.12590000
C        0.66830000      -0.56800000      -1.08100000
C        1.33000000      -1.93860000      -0.92020000
C        0.34230000      -2.92590000      -0.39030000
C        0.28320000      -2.58150000      -1.86590000
C       -0.35030000      -1.25220000      -2.03610000
N       -1.23880000      -0.89020000      -2.86350000
O       -1.48430000       0.50030000      -2.78500000
H        0.61230000       1.99600000      -0.36540000
H       -1.06210000       1.44080000      -0.61870000
H       -0.43210000       1.66810000       1.04270000
H        1.28600000       0.13450000      -1.66180000
H        2.39820000      -2.10820000      -0.90250000
H        0.74010000      -3.91300000      -0.17840000
H       -0.44590000      -2.60070000       0.27980000
H        0.42230000      -3.32330000      -2.64060000
H       -2.16250000       0.62120000      -3.45790000
