21
Properties=species:S:1:pos:R:3 gdb_119420=T pbc="F F F"
C        0.01800000       1.53190000       0.05890000
C       -0.04940000       0.00700000       0.16760000
C       -1.44720000      -0.54980000      -0.14530000
C       -1.50690000      -2.04160000      -0.07680000
C       -1.65440000      -2.89160000       1.16720000
C       -2.60130000      -3.07630000      -0.00210000
O       -3.96960000      -2.91230000       0.07450000
C       -1.86600000      -3.77300000      -1.14280000
O       -0.79250000      -2.79490000      -1.07410000
H        1.02280000       1.90280000       0.28360000
H       -0.24330000       1.86920000      -0.95030000
H       -0.67790000       2.01140000       0.75680000
H        0.67330000      -0.44850000      -0.51930000
H        0.24380000      -0.30890000       1.17650000
H       -2.18300000      -0.14010000       0.55780000
H       -1.75510000      -0.22960000      -1.14900000
H       -0.90570000      -3.63970000       1.41600000
H       -2.10490000      -2.37640000       2.01090000
H       -4.31910000      -3.55290000       0.70380000
H       -1.50900000      -4.79850000      -0.98810000
H       -2.40120000      -3.69900000      -2.09650000
