13
Properties=species:S:1:pos:R:3 gdb_128633=T pbc="F F F"
C       -0.00290000       1.38040000      -0.01290000
O        0.01950000      -0.05900000      -0.03120000
C        0.60100000      -0.64400000      -1.04950000
N        0.71710000      -1.92520000      -1.23560000
C        1.39370000      -1.95880000      -2.42950000
C        1.76540000      -3.25450000      -3.06670000
O        2.35640000      -3.35400000      -4.10880000
N        1.68310000      -0.79340000      -2.95870000
O        1.14550000       0.10700000      -2.02190000
H        1.01440000       1.77930000      -0.00140000
H       -0.54060000       1.76640000      -0.88240000
H       -0.52500000       1.64560000       0.90480000
H        1.43570000      -4.12940000      -2.47130000
