20
Properties=species:S:1:pos:R:3 gdb_87850=T pbc="F F F"
C       -0.18250000       1.41770000      -0.03530000
N        0.04150000      -0.01650000       0.06050000
C        1.40670000      -0.49640000      -0.17070000
C        0.80140000      -0.53120000       1.18500000
C        1.28260000       0.27850000       2.41270000
C        0.91800000      -0.79160000       3.46910000
C        1.46150000      -2.11110000       2.87590000
C        0.30420000      -1.78260000       1.90620000
O       -0.41980000      -1.19640000       3.03860000
H        0.67330000       2.02970000       0.29450000
H       -0.40050000       1.67300000      -1.07700000
H       -1.05260000       1.68900000       0.57100000
H        1.49910000      -1.39820000      -0.77240000
H        2.18510000       0.24640000      -0.34680000
H        2.34680000       0.52780000       2.39400000
H        0.70630000       1.19350000       2.56920000
H        0.98830000      -0.52900000       4.52440000
H        2.48530000      -2.14720000       2.49410000
H        1.23330000      -2.96860000       3.50920000
H       -0.25930000      -2.51800000       1.33420000
