16
Properties=species:S:1:pos:R:3 gdb_26488=T pbc="F F F"
C        0.21530000       1.36580000       0.45880000
C       -0.03020000      -0.03630000      -0.04730000
C        0.52290000      -0.49730000      -1.32940000
O        1.13720000      -0.88500000      -0.10110000
C       -1.24860000      -0.72050000       0.45150000
N       -1.91400000      -1.69140000      -0.09330000
C       -2.92700000      -1.97350000       0.81000000
C       -2.82250000      -1.13520000       1.86760000
O       -1.74760000      -0.32240000       1.65170000
H        1.15140000       1.74550000       0.04430000
H       -0.59980000       2.03580000       0.16740000
H        0.28720000       1.37660000       1.54970000
H        0.01420000      -1.29250000      -1.86860000
H        1.08850000       0.21000000      -1.93520000
H       -3.65270000      -2.75000000       0.62830000
H       -3.37220000      -0.97770000       2.77920000
