18
Properties=species:S:1:pos:R:3 gdb_39728=T pbc="F F F"
C        0.02020000       1.51630000      -0.01560000
N        1.25230000       0.69830000       0.06760000
C       -0.04920000       0.04230000       0.02470000
C       -0.50490000      -0.85270000       1.14680000
C       -1.77740000      -1.54420000       0.64130000
C       -2.03960000      -1.01400000      -0.76670000
C       -0.54640000      -0.83370000      -1.12880000
O        0.02160000      -2.11540000      -0.80800000
C       -0.43840000      -2.23290000       0.52890000
H       -0.19860000       2.10260000       0.87270000
H       -0.21320000       2.01810000      -0.95280000
H        1.70800000       0.64780000      -0.84090000
H       -0.29860000      -0.65090000       2.18790000
H       -2.55910000      -1.88630000       1.30540000
H       -2.53520000      -1.74550000      -1.41090000
H       -2.58920000      -0.06950000      -0.78750000
H       -0.28280000      -0.54630000      -2.14510000
H       -0.14100000      -3.14080000       1.03260000
