22
Properties=species:S:1:pos:R:3 gdb_110638=T pbc="F F F"
C        0.28750000       1.53520000      -0.19130000
C       -0.25850000       0.12750000       0.08130000
C        0.52840000      -0.56230000       1.19770000
N        0.02120000      -1.33880000       2.36930000
C       -0.95420000      -2.43140000       1.99320000
C       -1.34370000      -2.63910000       0.55630000
C        0.00860000      -3.09320000       1.03530000
C        0.99730000      -1.95760000       1.38290000
C        2.39870000      -2.31620000       1.78770000
H        1.33870000       1.49920000      -0.49720000
H       -0.27590000       2.02700000      -0.99000000
H        0.22210000       2.16350000       0.70330000
H       -1.31430000       0.20190000       0.36140000
H       -0.21280000      -0.45480000      -0.84440000
H        1.26660000       0.12680000       1.61200000
H       -1.52580000      -2.84850000       2.81250000
H       -2.04100000      -3.46610000       0.44360000
H       -1.50100000      -1.85100000      -0.16240000
H        0.32850000      -4.12610000       0.99050000
H        2.99940000      -2.58650000       0.91040000
H        2.88700000      -1.47890000       2.29360000
H        2.39950000      -3.17310000       2.47110000
