17
Properties=species:S:1:pos:R:3 gdb_90208=T pbc="F F F"
C       -0.50510000       1.37090000      -0.06920000
C        0.07000000      -0.02510000       0.02120000
O        1.22390000      -0.22970000      -0.89780000
C        2.08530000      -0.33020000       0.23020000
C        2.83500000       0.77100000       0.99960000
C        2.21790000      -0.12340000       2.10290000
C        2.41960000      -1.46180000       1.26000000
O        1.06160000      -1.91360000       1.38340000
C        0.94320000      -0.45060000       1.23460000
H        0.23890000       2.13690000       0.15980000
H       -0.87870000       1.54990000      -1.08180000
H       -1.33980000       1.47330000       0.63180000
H       -0.68660000      -0.79010000      -0.17410000
H        3.92550000       0.78800000       0.93090000
H        2.42900000       1.78170000       0.92650000
H        2.29860000      -0.02860000       3.18700000
H        3.22740000      -2.19630000       1.33480000
