21
Properties=species:S:1:pos:R:3 gdb_97443=T pbc="F F F"
C        0.06370000       0.42840000      -0.72210000
N       -0.62580000      -0.71570000      -0.15880000
C       -1.88240000      -0.65970000      -0.07110000
O       -2.66370000      -1.62290000       0.44520000
C       -2.03840000      -2.74860000       1.08700000
C       -1.87250000      -3.96400000       0.18750000
C       -1.48810000      -5.20910000       0.96110000
C       -2.67770000      -4.06630000      -1.05620000
N       -1.22340000      -3.81900000      -1.12040000
H        0.65720000       0.11260000      -1.58720000
H       -0.60970000       1.23960000      -1.04070000
H        0.76540000       0.83500000       0.01460000
H       -2.50750000       0.17800000      -0.40370000
H       -1.06870000      -2.43850000       1.48770000
H       -2.70660000      -3.00070000       1.91650000
H       -2.27600000      -5.50140000       1.66460000
H       -1.31230000      -6.03580000       0.26970000
H       -0.56580000      -5.04870000       1.53180000
H       -2.99130000      -5.04340000      -1.41530000
H       -3.35690000      -3.25290000      -1.29110000
H       -1.03060000      -2.83790000      -1.30510000
