19
Properties=species:S:1:pos:R:3 gdb_41422=T pbc="F F F"
C        0.04930000       1.47600000      -0.06100000
O        1.49480000       1.38560000      -0.00600000
C        1.44230000      -0.02150000       0.35290000
C        1.70670000      -1.00670000      -0.75830000
C        0.63910000      -2.11260000      -0.68240000
C       -0.19340000      -2.33160000       0.59580000
C       -0.95140000      -0.98110000       0.80890000
C       -0.07870000      -0.04300000      -0.00220000
C        0.30060000      -0.79810000      -1.30380000
H       -0.35060000       1.99850000       0.82020000
H       -0.30390000       1.97970000      -0.96820000
H        1.85020000      -0.18750000       1.35610000
H        2.63120000      -1.16220000      -1.30380000
H        0.83770000      -2.96210000      -1.32640000
H       -0.88700000      -3.16630000       0.45830000
H        0.43280000      -2.57670000       1.45990000
H       -1.97140000      -1.03640000       0.41050000
H       -1.01800000      -0.69870000       1.86430000
H       -0.05330000      -0.61210000      -2.30930000
