17
Properties=species:S:1:pos:R:3 gdb_8276=T pbc="F F F"
O       -0.19160000       1.47200000      -0.03280000
C       -0.01150000       0.07800000       0.00430000
C        0.30570000      -0.60400000       1.36740000
C       -0.73160000      -1.69860000       0.99540000
C       -1.63850000      -2.22740000       2.11190000
C       -2.65590000      -3.15350000       1.61530000
N       -3.44980000      -3.88390000       1.20070000
C       -1.32880000      -0.72110000      -0.05420000
H        0.67370000       1.89330000      -0.04390000
H        0.69000000      -0.25680000      -0.77280000
H        1.33240000      -0.91440000       1.57660000
H       -0.05710000       0.02810000       2.18460000
H       -0.24330000      -2.54300000       0.50070000
H       -1.04300000      -2.74270000       2.87520000
H       -2.14240000      -1.39270000       2.61370000
H       -2.13590000      -0.12000000       0.37650000
H       -1.65400000      -1.12200000      -1.01530000
