16
Properties=species:S:1:pos:R:3 gdb_114164=T pbc="F F F"
O        0.01350000       1.36940000      -0.21980000
C        0.05490000      -0.01790000       0.07770000
C       -1.37230000      -0.52720000       0.01720000
C       -2.09280000      -0.52850000      -1.37940000
C       -2.26750000      -2.04920000      -1.23120000
O       -0.96050000      -2.62160000      -1.07930000
C       -1.57130000      -2.05100000       0.07790000
C       -3.32030000      -2.88010000      -1.72630000
N       -4.19610000      -3.51390000      -2.13680000
H        0.91680000       1.69420000      -0.27780000
H        0.66700000      -0.57170000      -0.64800000
H        0.47260000      -0.20320000       1.08100000
H       -1.98620000      -0.01700000       0.76430000
H       -3.03630000       0.01810000      -1.37000000
H       -1.49480000      -0.22520000      -2.23990000
H       -1.70980000      -2.69980000       0.93500000
