23
Properties=species:S:1:pos:R:3 gdb_64432=T pbc="F F F"
C       -0.21110000       1.58790000      -0.15810000
C       -0.05990000       0.06830000       0.02320000
C       -1.44870000      -0.59690000       0.00280000
C        0.74830000      -0.51830000      -1.15230000
O        1.95040000       0.16620000      -1.43870000
C        3.07340000      -0.20910000      -0.67000000
C        3.05840000       0.18720000       0.78670000
C        2.02540000       0.18540000       1.62920000
C        0.60140000      -0.25260000       1.38460000
H        0.76060000       2.08450000      -0.14650000
H       -0.69370000       1.82010000      -1.11390000
H       -0.82920000       2.01220000       0.64080000
H       -1.98740000      -0.35730000      -0.92020000
H       -1.37240000      -1.68820000       0.07390000
H       -2.05970000      -0.25150000       0.84340000
H        0.94870000      -1.58900000      -0.97440000
H        0.14590000      -0.44460000      -2.06560000
H        3.23320000      -1.30140000      -0.74970000
H        3.92840000       0.26710000      -1.16140000
H        4.03160000       0.47760000       1.17910000
H        2.23070000       0.48680000       2.65500000
H       -0.03010000       0.17520000       2.17290000
H        0.55280000      -1.34230000       1.54180000
