19
Properties=species:S:1:pos:R:3 gdb_79031=T pbc="F F F"
C        0.06090000       1.49810000      -0.20680000
N        0.03780000       0.05640000       0.01730000
C       -1.05380000      -0.49840000       0.88360000
C       -0.14340000      -1.75550000       1.13860000
C       -0.41500000      -2.27360000       2.53620000
N        0.61980000      -1.85720000       3.52080000
C       -0.58820000      -1.01690000       3.29750000
C       -0.38830000       0.03140000       2.21800000
C        0.73490000      -0.47390000       1.24660000
H        1.03770000       1.77200000      -0.61960000
H       -0.69570000       1.74720000      -0.95870000
H       -0.12150000       2.12910000       0.67740000
H       -2.10490000      -0.46950000       0.58410000
H        0.04110000      -2.43350000       0.30780000
H       -1.00240000      -3.16670000       2.71380000
H        0.48120000      -2.39350000       4.37650000
H       -1.31500000      -0.89540000       4.09280000
H       -0.44960000       1.08320000       2.48680000
H        1.81450000      -0.41590000       1.37860000
