21
Properties=species:S:1:pos:R:3 gdb_112030=T pbc="F F F"
O       -0.43830000       1.71080000       0.82290000
C       -0.13960000       0.33580000       0.61800000
C       -1.31620000      -0.43770000       0.00470000
C       -1.65740000      -0.05920000      -1.42550000
C       -1.90600000      -1.11660000      -2.19960000
C       -1.77050000      -2.42090000      -1.45870000
C       -0.49860000      -3.25860000      -1.78070000
C        0.24380000      -2.52420000      -0.63040000
C       -1.12170000      -1.96690000      -0.10820000
H       -0.48860000       2.13380000      -0.03940000
H        0.76570000       0.21930000       0.00540000
H        0.08460000      -0.06760000       1.61140000
H       -2.17910000      -0.21740000       0.65130000
H       -1.72540000       0.97280000      -1.75770000
H       -2.18900000      -1.06880000      -3.24660000
H       -2.71260000      -2.97960000      -1.43030000
H       -0.64640000      -4.32210000      -1.57350000
H       -0.08030000      -3.15690000      -2.78590000
H        0.80550000      -3.15160000       0.06530000
H        0.91230000      -1.74490000      -1.00080000
H       -1.47140000      -2.50250000       0.77660000
