20
Properties=species:S:1:pos:R:3 gdb_10979=T pbc="F F F"
C       -0.18310000       1.54150000      -0.03010000
C        0.01520000       0.03100000      -0.00020000
C        1.19320000      -0.59580000      -0.84300000
C        2.13240000      -0.20940000       0.34710000
C        0.86240000      -0.60540000       1.18460000
C        0.67490000      -0.22030000       2.63420000
C        0.75400000      -2.08770000       0.78380000
C        0.97040000      -2.08080000      -0.53450000
H        0.74150000       2.10800000       0.10950000
H       -0.61520000       1.84780000      -0.98950000
H       -0.88300000       1.85230000       0.75410000
H       -0.94750000      -0.46540000      -0.15940000
H        1.39640000      -0.29510000      -1.87100000
H        3.02830000      -0.81840000       0.48990000
H        2.38510000       0.85320000       0.39670000
H        0.74800000       0.86310000       2.77530000
H       -0.30620000      -0.53880000       3.00560000
H        1.43640000      -0.68880000       3.26820000
H        0.53550000      -2.90820000       1.45390000
H        0.97840000      -2.89530000      -1.24510000
