19
Properties=species:S:1:pos:R:3 gdb_54825=T pbc="F F F"
C       -0.02490000       1.46130000      -0.18550000
C        0.15690000      -0.04890000      -0.22210000
O        1.26010000      -0.54610000      -0.33690000
C       -1.09910000      -0.84300000      -0.09980000
C       -1.44010000      -2.12130000      -0.88320000
C       -0.20880000      -3.01570000      -1.08620000
C       -0.03920000      -3.10020000       0.46690000
C       -1.26790000      -2.18920000       0.60740000
O       -2.26510000      -2.35240000       1.54890000
H        0.94400000       1.95320000      -0.27770000
H       -0.68410000       1.78500000      -0.99940000
H       -0.50650000       1.76550000       0.75120000
H       -1.99280000      -0.24120000       0.04420000
H       -2.34820000      -2.13650000      -1.47400000
H       -0.47890000      -3.97830000      -1.52570000
H        0.62390000      -2.58000000      -1.63660000
H       -0.26300000      -4.09850000       0.85010000
H        0.90200000      -2.73980000       0.88190000
H       -1.95200000      -1.99810000       2.38920000
