16
Properties=species:S:1:pos:R:3 gdb_31277=T pbc="F F F"
C        0.08730000       1.45550000       0.03630000
O        0.04040000       0.02940000       0.05170000
C        0.55360000      -0.59370000      -1.01970000
C        0.65410000      -1.94490000      -1.19080000
C        0.26740000      -3.12600000      -0.38410000
O       -0.85960000      -3.83780000      -0.89070000
O        1.23380000      -2.12500000      -2.43390000
C        1.43760000      -0.88970000      -2.90710000
N        1.05880000       0.07010000      -2.11930000
H        1.11850000       1.81630000      -0.02740000
H       -0.47860000       1.86040000      -0.80820000
H       -0.36330000       1.77450000       0.97690000
H        1.08030000      -3.85910000      -0.36200000
H        0.10100000      -2.78030000       0.64620000
H       -1.58610000      -3.20950000      -0.96210000
H        1.89070000      -0.80350000      -3.88230000
