16
Properties=species:S:1:pos:R:3 gdb_131690=T pbc="F F F"
O       -0.01220000       1.33880000      -0.09840000
C        0.01440000      -0.07920000      -0.08770000
C       -1.39550000      -0.56620000      -0.01800000
C       -2.53900000       0.16290000       0.00940000
O       -3.61460000      -0.64280000       0.05900000
N       -3.18540000      -1.96200000       0.05920000
C       -1.87430000      -1.91250000       0.02210000
C       -1.06770000      -3.17700000      -0.00410000
O       -0.16380000      -3.20930000      -1.10320000
H        0.89250000       1.65440000      -0.17460000
H        0.49950000      -0.48850000      -0.98620000
H        0.58430000      -0.46360000       0.77510000
H       -2.73210000       1.22280000      -0.00080000
H       -0.43850000      -3.24280000       0.89020000
H       -1.74950000      -4.03680000       0.00230000
H       -0.69010000      -3.20680000      -1.91000000
