19
Properties=species:S:1:pos:R:3 gdb_40461=T pbc="F F F"
C        0.29570000       1.48140000       0.05640000
O        1.14480000       0.39860000      -0.32210000
C       -0.21830000       0.10420000       0.00990000
C       -0.46170000      -0.69980000       1.23790000
C        0.40080000      -0.52180000       2.52020000
C        0.04940000      -1.97380000       2.83050000
C       -1.40110000      -2.20510000       2.37490000
C       -1.90760000      -0.89010000       1.78930000
C       -0.26320000      -2.27470000       1.38680000
H        0.52270000       1.93750000       1.01870000
H        0.04030000       2.17900000      -0.74010000
H       -0.82570000      -0.17370000      -0.85390000
H        1.45710000      -0.40930000       2.26440000
H        0.09690000       0.26130000       3.22570000
H        0.51600000      -2.63220000       3.55180000
H       -1.98430000      -3.02700000       2.76970000
H       -2.29110000      -0.11290000       2.46140000
H       -2.62660000      -1.06610000       0.98320000
H        0.07830000      -3.04600000       0.71230000
