21
Properties=species:S:1:pos:R:3 gdb_96240=T pbc="F F F"
C        0.06140000       1.53090000      -0.11460000
C        0.08030000       0.01040000      -0.00360000
O        0.94710000      -0.47550000      -1.02900000
C        0.64240000      -1.77150000      -1.51150000
C        1.20930000      -2.90770000      -0.66100000
C        0.76790000      -2.96070000       0.78160000
C        0.49440000      -1.95630000       1.61690000
C        0.57690000      -0.46010000       1.37400000
O        1.90550000       0.01280000       1.60280000
H        1.05410000       1.93660000       0.09310000
H       -0.24210000       1.82960000      -1.12090000
H       -0.64210000       1.95940000       0.60590000
H       -0.93350000      -0.38690000      -0.16570000
H       -0.44820000      -1.88690000      -1.60640000
H        1.07200000      -1.82860000      -2.51790000
H        0.94230000      -3.85160000      -1.15330000
H        2.30830000      -2.86160000      -0.69490000
H        0.72430000      -3.96620000       1.19740000
H        0.25350000      -2.22330000       2.64370000
H       -0.03570000       0.03970000       2.13320000
H        2.41470000      -0.27150000       0.83290000
