14
Properties=species:S:1:pos:R:3 gdb_80214=T pbc="F F F"
O       -0.05740000       1.38010000       0.28310000
C       -0.06270000       0.00470000       0.12520000
C       -0.48720000      -0.84590000       1.26410000
N       -1.57640000      -0.23730000       2.02400000
C       -2.40050000      -0.11110000       0.89090000
O       -3.47600000       0.38120000       0.73190000
C       -1.37380000      -0.81880000      -0.00720000
C       -1.59790000      -1.77720000      -1.02550000
C       -1.79620000      -2.57780000      -1.90170000
H       -0.28640000       1.79030000      -0.55830000
H        0.73470000      -0.40660000      -0.49560000
H        0.06920000      -1.68300000       1.66450000
H       -1.42080000       0.55040000       2.64350000
H       -1.98290000      -3.29030000      -2.66660000
