8
Properties=species:S:1:pos:R:3 gdb_725=T pbc="F F F"
C       -0.02080000       1.38540000       0.01050000
N        1.11660000       2.06540000       0.00310000
N        2.25850000       1.37880000      -0.01210000
N        2.27630000       0.06460000      -0.01980000
N        1.15340000      -0.65280000      -0.01270000
C       -0.00190000      -0.00400000       0.00240000
H       -0.93960000       1.96440000       0.02280000
H       -0.90480000      -0.60780000       0.00790000
