20
Properties=species:S:1:pos:R:3 gdb_17821=T pbc="F F F"
C        0.06220000       1.53610000      -0.34330000
C       -0.03860000       0.07190000       0.00190000
O        1.16930000      -0.69610000      -0.01020000
C        0.47650000      -0.54640000       1.23790000
C        1.17750000       0.18160000       2.34710000
C        0.35550000       0.53960000       3.62110000
C        1.59230000       0.16300000       4.48030000
C        2.14740000      -0.62430000       3.26300000
H        0.89960000       2.01860000       0.16400000
H        0.20550000       1.65880000      -1.42200000
H       -0.86170000       2.05670000      -0.06820000
H       -0.87780000      -0.43920000      -0.47660000
H       -0.02330000      -1.46300000       1.56600000
H        1.68610000       1.06620000       1.95640000
H       -0.04160000       1.55450000       3.69990000
H       -0.46840000      -0.16650000       3.77110000
H        2.20560000       1.03910000       4.70980000
H        1.41780000      -0.38880000       5.40670000
H        1.86430000      -1.68130000       3.30290000
H        3.21600000      -0.55970000       3.04750000
