17
Properties=species:S:1:pos:R:3 gdb_127397=T pbc="F F F"
C       -0.01310000       1.42820000       0.03780000
N       -0.08460000      -0.01130000       0.15040000
C       -1.45570000      -0.56760000       0.16040000
C       -1.23940000      -1.89320000       0.81580000
C       -1.73370000      -3.12000000       1.09230000
O       -0.83660000      -3.81410000       1.83050000
N        0.30170000      -3.02330000       2.05580000
C        0.02870000      -1.90480000       1.44650000
C        0.71530000      -0.59030000       1.24760000
H        1.03010000       1.74200000      -0.07060000
H       -0.55430000       1.75830000      -0.85490000
H       -0.43970000       1.95910000       0.91100000
H       -2.15900000       0.05450000       0.74660000
H       -1.84670000      -0.62240000      -0.86220000
H       -2.64580000      -3.64830000       0.86310000
H        1.76850000      -0.67400000       0.95930000
H        0.67080000       0.00940000       2.17640000
