19
Properties=species:S:1:pos:R:3 gdb_122506=T pbc="F F F"
O       -0.07480000       1.47370000      -0.44690000
C        0.00550000       0.08150000      -0.19630000
C       -1.36790000      -0.57340000      -0.03950000
C       -1.27760000      -2.06780000       0.30060000
C       -2.64750000      -2.68850000       0.44160000
O       -3.36290000      -3.00370000      -0.74530000
C       -2.99400000      -4.09440000       0.10870000
C       -1.98500000      -5.04810000      -0.44260000
O       -1.85660000      -6.17570000      -0.03880000
H       -0.51770000       1.59670000      -1.29260000
H        0.57990000      -0.43660000      -0.98180000
H        0.57620000      -0.01840000       0.73410000
H       -1.92300000      -0.03910000       0.74110000
H       -1.93760000      -0.45390000      -0.97090000
H       -0.70610000      -2.59090000      -0.47240000
H       -0.73590000      -2.20390000       1.24580000
H       -3.27080000      -2.23410000       1.21580000
H       -3.80770000      -4.56870000       0.65600000
H       -1.36760000      -4.63940000      -1.27100000
