20
Properties=species:S:1:pos:R:3 gdb_26231=T pbc="F F F"
C        0.27930000       1.17020000       1.08820000
C       -0.17970000       0.35130000      -0.11660000
O        0.70260000      -0.75040000      -0.38100000
C       -1.59450000      -0.13340000       0.00980000
C       -2.66000000       0.24470000       0.79730000
C       -3.77200000      -0.56680000       0.43300000
C       -3.36230000      -1.42580000      -0.56420000
C       -4.09640000      -2.49820000      -1.29930000
N       -2.04140000      -1.14250000      -0.81430000
H        1.32150000       1.47040000       0.95410000
H       -0.33080000       2.07090000       1.20540000
H        0.19630000       0.58450000       2.01020000
H       -0.07600000       0.97070000      -1.01840000
H        0.65180000      -1.33830000       0.38230000
H       -2.64980000       1.02320000       1.54460000
H       -4.76470000      -0.53080000       0.85640000
H       -4.12890000      -2.31290000      -2.38030000
H       -3.64340000      -3.48720000      -1.15320000
H       -5.12750000      -2.55300000      -0.94280000
H       -1.43350000      -1.63730000      -1.44570000
