16
Properties=species:S:1:pos:R:3 gdb_130226=T pbc="F F F"
N       -0.07860000       1.39370000      -0.11330000
C        0.03920000       0.02180000       0.01840000
N       -0.97350000      -0.70810000       0.43570000
O       -0.46300000      -2.01620000       0.53090000
C        0.82690000      -2.01900000       0.15050000
C        1.21470000      -0.76230000      -0.19230000
C        1.53060000      -3.30810000       0.17070000
C        1.22110000      -4.31150000       1.23240000
N        0.80060000      -4.55250000      -0.14980000
H        0.44340000       1.78420000      -0.88440000
H       -1.03980000       1.70820000      -0.11250000
H        2.18450000      -0.43470000      -0.52790000
H        2.53750000      -3.26380000      -0.23300000
H        2.01560000      -4.95850000       1.59310000
H        0.47040000      -4.03860000       1.96770000
H       -0.18910000      -4.33320000      -0.24420000
