16
Properties=species:S:1:pos:R:3 gdb_133778=T pbc="F F F"
C       -0.11460000       1.56670000      -0.31690000
C        0.00140000       0.19180000       0.35330000
C       -1.32410000      -0.53020000       0.35810000
O       -1.78850000      -1.11410000      -0.87280000
C       -1.53370000      -1.97900000       0.21960000
C       -0.42140000      -2.99410000       0.05350000
F        0.54560000      -2.58990000      -0.77310000
F        0.13520000      -3.26860000       1.24500000
F       -0.91420000      -4.14320000      -0.43160000
H        0.84570000       2.08950000      -0.30030000
H       -0.42750000       1.46190000      -1.35990000
H       -0.84940000       2.19930000       0.19300000
H        0.75550000      -0.41170000      -0.15280000
H        0.32430000       0.30800000       1.39570000
H       -2.11660000      -0.00410000       0.89610000
H       -2.41020000      -2.43570000       0.68060000
