17
Properties=species:S:1:pos:R:3 gdb_53751=T pbc="F F F"
C        0.11020000       0.58720000      -1.16260000
C       -0.24860000       0.31850000       0.28480000
O        0.19540000       0.96900000       1.20690000
C       -1.17160000      -0.78080000       0.50270000
C       -1.94590000      -1.68860000       0.68480000
C       -2.87270000      -2.79260000       0.89720000
C       -3.18500000      -3.56340000      -0.37500000
C       -4.48060000      -4.22290000      -0.56830000
O       -4.16720000      -2.99730000      -1.23520000
H        0.80630000       1.42540000      -1.21750000
H        0.56030000      -0.30540000      -1.61060000
H       -0.79470000       0.81030000      -1.73810000
H       -2.45130000      -3.48100000       1.64250000
H       -3.80970000      -2.40810000       1.31820000
H       -2.31360000      -3.96700000      -0.89130000
H       -4.55140000      -5.10150000      -1.20710000
H       -5.24170000      -4.15030000       0.20780000
