12
Properties=species:S:1:pos:R:3 gdb_335=T pbc="F F F"
C        0.03780000       1.51570000       0.01260000
C       -0.03210000      -0.03070000      -0.02390000
C        0.71280000      -0.58170000       1.19760000
O        1.81000000      -1.06610000       1.15240000
C       -1.40730000      -0.51460000      -0.01930000
C       -2.53790000      -0.92010000       0.03030000
H        1.07910000       1.84540000      -0.03380000
H       -0.50570000       1.93480000      -0.83710000
H       -0.41510000       1.90340000       0.92990000
H        0.49910000      -0.39690000      -0.90910000
H        0.15460000      -0.46890000       2.15360000
H       -3.53620000      -1.28190000       0.05370000
