20
Properties=species:S:1:pos:R:3 gdb_23417=T pbc="F F F"
O       -0.28950000       1.35430000      -0.17420000
N       -0.08140000      -0.02760000       0.01000000
C       -1.17880000      -0.67260000      -0.00670000
C       -2.58680000      -0.12920000      -0.13460000
C       -3.45900000      -1.19520000       0.56340000
C       -2.71280000      -2.52210000       0.35780000
C       -2.74010000      -3.13550000      -1.07530000
C       -1.19620000      -2.98980000      -1.16830000
C       -1.19650000      -2.17240000       0.16370000
H        0.60330000       1.70390000      -0.08550000
H       -2.67070000       0.86980000       0.29710000
H       -2.84630000      -0.03320000      -1.19720000
H       -3.52160000      -0.97040000       1.63440000
H       -4.48310000      -1.22430000       0.17770000
H       -2.92710000      -3.25140000       1.14110000
H       -3.12810000      -4.15420000      -1.14690000
H       -3.28460000      -2.51880000      -1.79690000
H       -0.67040000      -3.94160000      -1.06140000
H       -0.79740000      -2.47340000      -2.04460000
H       -0.47570000      -2.50000000       0.91420000
