16
Properties=species:S:1:pos:R:3 gdb_9076=T pbc="F F F"
C        0.15890000       1.47050000       0.19810000
C        0.02660000      -0.05460000       0.02980000
C        0.76440000      -0.82840000       1.13820000
O        2.16500000      -0.54840000       1.07110000
C        2.78180000      -0.07310000       2.17140000
O        3.94840000       0.17470000       2.20010000
C       -1.37130000      -0.47920000       0.01000000
C       -2.52050000      -0.83070000       0.02790000
H        1.21150000       1.76330000       0.18350000
H       -0.35600000       1.98960000      -0.61340000
H       -0.28660000       1.79620000       1.14350000
H        0.49340000      -0.34000000      -0.92200000
H        0.36500000      -0.55290000       2.12260000
H        0.63160000      -1.90480000       1.00000000
H        2.09030000       0.05650000       3.02690000
H       -3.53670000      -1.13940000       0.02530000
