17
Properties=species:S:1:pos:R:3 gdb_42894=T pbc="F F F"
O       -0.12810000       0.04570000      -0.20160000
C       -0.12710000       1.22950000      -0.01150000
C       -1.18410000       2.29050000      -0.01300000
C       -0.94650000       3.23700000       1.15730000
C       -0.04700000       3.35470000      -0.02010000
C        1.02510000       2.26490000       0.04770000
C        2.19210000       2.24510000       1.05410000
O        3.16790000       2.16200000      -0.00250000
C        2.14240000       2.13830000      -1.01240000
H       -2.13150000       2.26530000      -0.53590000
H       -1.71080000       4.00020000       1.26110000
H       -0.57250000       2.85480000       2.10310000
H        0.00330000       4.23640000      -0.64590000
H        2.30320000       3.15720000       1.65460000
H        2.22660000       1.36790000       1.71220000
H        2.13380000       1.19450000      -1.57050000
H        2.22480000       2.98070000      -1.71100000
