19
Properties=species:S:1:pos:R:3 gdb_63194=T pbc="F F F"
C        0.01070000       1.53550000      -0.06600000
C       -0.01460000       0.00750000       0.00190000
C       -1.44510000      -0.53510000      -0.04880000
N        0.87770000      -0.46120000      -1.12170000
C        1.59050000      -1.37900000      -0.60880000
N        2.98760000      -1.02590000      -0.28180000
C        2.31100000      -0.97310000       1.12920000
C        1.22300000      -1.91970000       0.81820000
C        0.77360000      -0.56100000       1.21950000
H        1.04050000       1.89780000      -0.10160000
H       -0.50980000       1.89320000      -0.95870000
H       -0.48250000       1.95600000       0.81840000
H       -1.91660000      -0.24300000      -0.99180000
H       -1.45490000      -1.62680000       0.01540000
H       -2.05080000      -0.13670000       0.77250000
H        3.55730000      -1.87590000      -0.19700000
H        2.96180000      -0.90250000       1.99550000
H        0.97290000      -2.91330000       1.16490000
H        0.43670000      -0.35390000       2.23390000
