18
Properties=species:S:1:pos:R:3 gdb_69679=T pbc="F F F"
C        0.03370000       1.58950000       0.04280000
C        0.11710000       0.09730000       0.05690000
N       -0.80620000      -0.76110000       0.83050000
C        0.66060000      -0.86780000       1.03710000
C        1.26520000      -1.73390000      -0.09860000
C        0.27140000      -2.21440000      -1.14190000
C       -1.03010000      -2.80440000      -0.97870000
C       -2.06810000      -3.41280000      -0.97940000
C        0.69480000      -0.75570000      -1.11700000
H        0.96290000       2.03350000      -0.33110000
H       -0.78360000       1.93480000      -0.60190000
H       -0.14300000       1.98010000       1.05080000
H       -1.17740000      -0.19600000       1.59490000
H        1.10720000      -0.71150000       2.01070000
H        2.26470000      -2.14740000      -0.05080000
H        0.82250000      -2.71890000      -1.93670000
H       -3.00650000      -3.90560000      -0.92510000
H        1.19070000      -0.30590000      -1.96890000
