17
Properties=species:S:1:pos:R:3 gdb_13202=T pbc="F F F"
C       -0.09340000       1.31520000       0.00040000
O       -0.02700000      -0.11090000       0.05310000
C        0.61320000      -0.60410000       1.14560000
O        1.11360000       0.07280000       2.01790000
N        0.59730000      -1.96000000       1.12720000
C        0.39370000      -2.91080000       0.02850000
C        1.16330000      -3.97080000       0.86920000
C        1.43790000      -2.85650000       1.92200000
H        0.90820000       1.75310000      -0.01690000
H       -0.62700000       1.55300000      -0.92060000
H       -0.63240000       1.71280000       0.86460000
H       -0.65720000      -3.13100000      -0.18290000
H        0.88390000      -2.61250000      -0.90460000
H        0.53930000      -4.78650000       1.23570000
H        2.05020000      -4.38710000       0.39150000
H        2.47910000      -2.52350000       1.99210000
H        1.06120000      -3.04210000       2.93240000
