11
Properties=species:S:1:pos:R:3 gdb_131336=T pbc="F F F"
O        0.10260000       1.33730000       0.17130000
C        0.07600000       0.01020000       0.05700000
N        0.07100000      -0.71010000      -1.03480000
N        0.03950000      -2.08160000      -0.69240000
C        0.02780000      -2.06440000       0.59760000
O        0.00000000      -2.95060000       1.63310000
C        0.00680000      -2.14140000       2.73750000
N        0.03520000      -0.86840000       2.52690000
N        0.04870000      -0.81710000       1.14550000
H        0.11810000       1.69430000      -0.72740000
H       -0.01190000      -2.62410000       3.70090000
