18
Properties=species:S:1:pos:R:3 gdb_124616=T pbc="F F F"
C       -0.04650000       1.55410000       0.04340000
C       -0.01400000       0.02230000       0.03110000
C        0.73270000      -0.56060000       1.23530000
N       -1.37900000      -0.51140000      -0.02360000
N       -2.27040000      -0.27830000       0.97850000
N       -3.38410000      -0.86720000       0.65930000
C       -3.24290000      -1.48860000      -0.54450000
C       -1.95780000      -1.26210000      -0.98480000
O       -1.25030000      -1.61410000      -2.07930000
H        0.97410000       1.94760000       0.04530000
H       -0.56480000       1.94160000      -0.83800000
H       -0.56440000       1.91600000       0.93480000
H        0.46150000      -0.32260000      -0.89170000
H        0.24020000      -0.26790000       2.16570000
H        0.75940000      -1.65270000       1.18790000
H        1.76160000      -0.18970000       1.24990000
H       -4.04350000      -2.04220000      -1.00720000
H       -1.81120000      -2.14400000      -2.65440000
