16
Properties=species:S:1:pos:R:3 gdb_46163=T pbc="F F F"
O        0.03590000      -0.05790000       0.10970000
C       -0.01130000       1.14260000       0.02230000
N       -1.18340000       1.85220000       0.00420000
C       -1.35690000       3.29330000      -0.03610000
C       -0.03980000       3.96560000       0.38150000
C        1.09110000       3.25330000      -0.37490000
O        1.14010000       1.86940000      -0.03410000
C       -0.05000000       5.39560000       0.11260000
C       -0.05170000       6.57120000      -0.13510000
H       -1.99920000       1.26300000       0.03940000
H       -1.63030000       3.63730000      -1.04310000
H       -2.16500000       3.58630000       0.64160000
H        0.12120000       3.79150000       1.45320000
H        0.95030000       3.37200000      -1.45710000
H        2.06670000       3.66200000      -0.10700000
H       -0.05270000       7.61350000      -0.34020000
