18
Properties=species:S:1:pos:R:3 gdb_17920=T pbc="F F F"
C       -0.10920000       1.53950000       0.01930000
C        0.04980000       0.02360000       0.00420000
C        1.06750000      -0.59460000      -0.99080000
C        2.39180000      -0.06800000      -0.40400000
O        2.14580000      -0.06410000       1.01880000
C        0.83840000      -0.59820000       1.16730000
O        0.84010000      -1.98500000       0.87460000
C        0.96440000      -2.06880000      -0.56370000
H        0.83260000       2.04600000       0.24200000
H       -0.47890000       1.90540000      -0.94430000
H       -0.83330000       1.84030000       0.78370000
H       -0.92670000      -0.46130000      -0.09110000
H        0.91910000      -0.40470000      -2.05390000
H        3.24010000      -0.72440000      -0.63060000
H        2.63810000       0.94690000      -0.73700000
H        0.51180000      -0.44970000       2.19540000
H        0.08130000      -2.56880000      -0.98200000
H        1.85510000      -2.65460000      -0.81880000
