19
Properties=species:S:1:pos:R:3 gdb_58154=T pbc="F F F"
C        0.08620000       1.53640000      -0.13020000
C        0.03780000       0.01670000       0.01880000
O        0.77250000      -0.42770000       1.14700000
C       -1.41730000      -0.54320000       0.04370000
C       -1.41800000      -2.08360000      -0.03140000
C       -2.11870000      -0.07450000       1.23460000
C       -2.67270000       0.30970000       2.24180000
C       -3.30370000       0.73640000       3.36980000
C       -3.86230000       1.11710000       4.37050000
H        1.12540000       1.87500000      -0.13150000
H       -0.38570000       1.85800000      -1.06470000
H       -0.43720000       2.02660000       0.69790000
H        0.53730000      -0.44650000      -0.84030000
H        0.34490000      -0.06080000       1.93100000
H       -1.93700000      -0.14610000      -0.83950000
H       -2.43360000      -2.48100000       0.03180000
H       -0.97540000      -2.40960000      -0.97780000
H       -0.82450000      -2.49550000       0.78730000
H       -4.35500000       1.44890000       5.25040000
