18
Properties=species:S:1:pos:R:3 gdb_78724=T pbc="F F F"
C        0.03760000       1.51020000      -0.08300000
N        0.03670000       0.06520000       0.09770000
C       -0.89890000      -0.54480000       1.01980000
C        0.04770000      -1.61830000       1.40970000
C        1.12220000      -0.59390000       0.88170000
C        1.13370000       0.05190000       2.29930000
C       -0.26320000      -0.55490000       2.47040000
C       -1.04650000      -0.67330000       3.64540000
C       -1.71770000      -0.76280000       4.64200000
H        0.91300000       1.79530000      -0.67570000
H       -0.85560000       1.79260000      -0.64980000
H        0.04250000       2.09380000       0.85020000
H       -1.97270000      -0.56310000       0.88140000
H       -0.02310000      -2.69550000       1.42850000
H        2.04630000      -0.81650000       0.35140000
H        1.85210000      -0.45840000       2.94520000
H        1.26480000       1.13450000       2.38590000
H       -2.30520000      -0.84410000       5.52230000
