16
Properties=species:S:1:pos:R:3 gdb_64543=T pbc="F F F"
C        0.01050000       1.58910000       0.01950000
C        0.03020000       0.08140000      -0.05520000
C       -1.16700000      -0.59260000       0.56840000
O       -2.14750000      -0.00270000       0.93670000
C        0.66340000      -0.72840000      -1.12680000
C        1.91200000      -0.07470000      -1.71330000
C        2.39860000      -0.01730000      -0.25590000
O        3.37090000       0.36080000       0.31240000
N        1.25220000      -0.75110000       0.28060000
H        0.82660000       2.05600000      -0.53300000
H       -0.93960000       1.95280000      -0.37930000
H        0.07340000       1.91140000       1.06250000
H       -1.06360000      -1.69470000       0.65930000
H        0.19760000      -1.62290000      -1.52500000
H        2.52020000      -0.76930000      -2.29870000
H        1.80960000       0.86400000      -2.26100000
