16
Properties=species:S:1:pos:R:3 gdb_16515=T pbc="F F F"
O        0.10780000       1.33550000       0.04190000
C       -0.01000000      -0.04220000      -0.09660000
C        0.84870000      -0.77080000      -1.15450000
C        0.25560000      -2.16210000      -1.00780000
C       -0.90740000      -2.08560000      -0.32750000
C       -0.84500000      -2.33030000       1.18780000
C       -0.65890000      -0.77150000       1.18570000
C       -1.36330000      -0.62880000      -0.14060000
H        0.95040000       1.52480000       0.46890000
H        0.74950000      -0.25460000      -2.11970000
H        1.92090000      -0.81390000      -0.92170000
H        0.90820000      -3.02730000      -0.92810000
H       -1.78800000      -2.58130000       1.68830000
H       -0.04070000      -2.97700000       1.55100000
H       -0.81720000      -0.13460000       2.05300000
H       -2.30820000      -0.16790000      -0.39660000
