15
Properties=species:S:1:pos:R:3 gdb_33340=T pbc="F F F"
C        0.04550000      -3.81660000      -0.09760000
C        0.03880000      -2.60950000      -0.05520000
C        0.02920000      -1.25030000      -0.00990000
C        0.02310000      -0.04010000       0.03340000
C        0.01310000       1.40340000       0.08020000
C       -0.23960000       2.13120000       1.46710000
C        1.10890000       2.83600000       1.28410000
O        2.10660000       1.81270000       1.19160000
C        1.37670000       2.14150000       0.01630000
H        0.05480000      -4.87750000      -0.13250000
H       -0.67010000       1.80580000      -0.67540000
H       -1.10470000       2.79560000       1.42500000
H       -0.30460000       1.48190000       2.34120000
H        1.42640000       3.80980000       1.63630000
H        1.93720000       2.42530000      -0.86660000
