17
Properties=species:S:1:pos:R:3 gdb_50194=T pbc="F F F"
O       -0.78010000       1.09680000       0.58610000
C       -0.00220000       1.34900000      -0.29950000
C        1.34160000       2.00250000      -0.12180000
C        1.63400000       3.30180000      -0.94770000
C        2.16700000       3.98640000       0.35490000
C        1.70990000       2.73030000       1.19420000
C        0.59020000       3.58150000       1.86420000
C        1.08080000       4.80390000       1.06530000
O        0.76570000       5.95770000       1.03450000
H       -0.24340000       1.09800000      -1.35980000
H        2.08830000       1.23790000      -0.37270000
H        2.38450000       3.18370000      -1.73000000
H        0.75750000       3.78670000      -1.38620000
H        3.18000000       4.38730000       0.32020000
H        2.37740000       2.20820000       1.87710000
H       -0.44360000       3.27060000       1.70860000
H        0.74360000       3.72270000       2.93930000
