19
Properties=species:S:1:pos:R:3 gdb_1815=T pbc="F F F"
C       -0.20030000       1.54020000      -0.05030000
C       -0.09850000       0.00660000      -0.02330000
C        0.84270000      -0.42480000       1.11950000
C       -1.49100000      -0.61700000       0.18160000
C        0.47960000      -0.54480000      -1.32340000
C        0.43150000       0.12370000      -2.62990000
O        1.64120000       0.08700000      -1.86560000
H        0.75610000       1.98570000      -0.33800000
H       -0.96690000       1.88330000      -0.75250000
H       -0.47110000       1.91960000       0.94000000
H        0.45850000      -0.08730000       2.08770000
H        0.94270000      -1.51510000       1.16050000
H        1.84140000      -0.00010000       0.97990000
H       -2.17540000      -0.33490000      -0.62560000
H       -1.43840000      -1.71110000       0.21170000
H       -1.92870000      -0.28010000       1.12710000
H        0.54030000      -1.63660000      -1.33770000
H        0.43720000      -0.47490000      -3.54010000
H       -0.02400000       1.10630000      -2.72810000
