18
Properties=species:S:1:pos:R:3 gdb_65320=T pbc="F F F"
C       -0.08740000       1.77180000       0.25360000
C       -0.05750000       0.28310000      -0.02660000
C        1.21700000      -0.36920000      -0.46690000
C        0.68730000      -0.65130000       0.93310000
C        1.36520000      -0.12380000       2.08170000
N        1.90640000       0.31110000       3.00780000
C       -1.35120000      -0.26470000      -0.56200000
C       -1.56890000      -0.50940000      -1.99420000
O       -1.32830000      -1.59050000      -1.08610000
H        0.84020000       2.10850000       0.72190000
H       -0.22640000       2.33300000      -0.67650000
H       -0.91090000       2.02840000       0.92890000
H        1.15580000      -1.19900000      -1.16080000
H        2.10220000       0.25060000      -0.54810000
H        0.24530000      -1.63070000       1.08100000
H       -2.22480000      -0.04480000       0.05450000
H       -2.57530000      -0.46460000      -2.40560000
H       -0.76270000      -0.30780000      -2.69730000
