18
Properties=species:S:1:pos:R:3 gdb_33876=T pbc="F F F"
C        0.07560000      -1.09260000       0.12870000
C        0.02420000       0.10620000       0.04420000
C       -0.09430000       1.53210000      -0.05420000
C        0.37180000       2.26740000      -1.26980000
N        1.14870000       2.39020000      -0.03160000
C        0.68030000       3.43860000       0.93640000
C       -0.80740000       3.76090000       0.62780000
C       -0.97600000       2.26260000       0.98490000
C        0.12740000       2.52590000       2.07260000
H        0.13650000      -2.15000000       0.20350000
H        0.88180000       1.68310000      -2.03010000
H       -0.19490000       3.10420000      -1.66120000
H        1.43410000       4.20780000       1.09920000
H       -1.23620000       4.40030000       1.40100000
H       -1.11220000       4.13490000      -0.34950000
H       -1.94020000       1.81230000       1.21390000
H        0.75280000       1.68300000       2.37190000
H       -0.24130000       3.07640000       2.94020000
