17
Properties=species:S:1:pos:R:3 gdb_44657=T pbc="F F F"
O        0.03520000      -0.01220000       0.00410000
C        0.00160000       1.19040000       0.01050000
C       -1.27990000       2.03290000       0.03170000
C       -0.86910000       3.53610000       0.03360000
C        0.02420000       3.71140000       1.25680000
C        1.11620000       2.94870000       1.24670000
C        1.26930000       2.09280000      -0.00200000
C        1.08300000       2.96080000      -1.23790000
C       -0.00880000       3.72340000      -1.21130000
H       -1.88240000       1.77810000      -0.84480000
H       -1.85870000       1.76940000       0.92150000
H       -1.74190000       4.18910000       0.04840000
H       -0.25480000       4.37870000       2.06330000
H        1.84150000       2.88500000       2.04830000
H        2.16490000       1.47550000      -0.01700000
H        1.78660000       2.90500000      -2.05910000
H       -0.30910000       4.39850000      -2.00360000
