18
Properties=species:S:1:pos:R:3 gdb_98080=T pbc="F F F"
C        0.05570000       1.39180000       0.03040000
N       -0.09770000      -0.04770000       0.06570000
C       -1.29450000      -0.66520000      -0.01340000
O       -2.38160000      -0.12320000      -0.12770000
C       -1.16350000      -2.19810000       0.07240000
O       -0.08090000      -2.72200000       0.24150000
C       -2.42620000      -3.02990000      -0.04940000
C       -2.99990000      -2.93410000      -1.47690000
O       -2.15540000      -4.36410000       0.30060000
H        0.68850000       1.69950000      -0.80880000
H       -0.93690000       1.82750000      -0.09060000
H        0.50020000       1.76470000       0.95940000
H        0.70380000      -0.65190000       0.17610000
H       -3.16470000      -2.60680000       0.64610000
H       -2.26100000      -3.27380000      -2.20960000
H       -3.86940000      -3.59230000      -1.54060000
H       -3.30200000      -1.91060000      -1.70500000
H       -1.19170000      -4.44130000       0.35480000
