21
Properties=species:S:1:pos:R:3 gdb_108506=T pbc="F F F"
C        0.04370000       1.55180000       0.10740000
C       -0.11710000       0.03720000      -0.06350000
C        0.64120000      -0.51030000      -1.26080000
C        0.17380000      -0.05610000      -2.64660000
C        0.63320000      -1.21160000      -3.54790000
O        0.50750000      -2.39140000      -2.74960000
C        0.82030000      -2.04790000      -1.41920000
C        2.30640000      -1.77040000      -1.11430000
O        2.08450000      -0.34330000      -1.10740000
H        1.10300000       1.81460000       0.17810000
H       -0.38530000       2.09960000      -0.73800000
H       -0.45630000       1.89800000       1.01660000
H        0.24620000      -0.47140000       0.83780000
H       -1.17720000      -0.22690000      -0.16970000
H       -0.91750000       0.03490000      -2.66120000
H        0.61230000       0.90310000      -2.92990000
H        0.02160000      -1.35150000      -4.44220000
H        1.67690000      -1.06370000      -3.85940000
H        0.28920000      -2.72810000      -0.75110000
H        2.65750000      -2.13440000      -0.14040000
H        3.00820000      -2.08500000      -1.89520000
