17
Properties=species:S:1:pos:R:3 gdb_18799=T pbc="F F F"
C       -0.04760000       1.54160000       0.08880000
C        1.50970000       1.46950000       0.00670000
C        1.99700000       1.27560000       1.41810000
C        1.54630000       0.16760000       2.01200000
C        0.81390000      -0.77270000       1.09060000
C        1.82800000      -1.05430000      -0.06620000
N        1.34170000       0.14980000      -0.79130000
C        0.02480000       0.02400000      -0.02750000
H       -0.48350000       2.00670000       0.97380000
H       -0.48140000       1.95650000      -0.82420000
H        2.04330000       2.23590000      -0.55580000
H        2.60710000       2.02950000       1.90340000
H        1.76810000      -0.11110000       3.03630000
H        0.31510000      -1.60530000       1.58970000
H        2.89050000      -1.08830000       0.18900000
H        1.55630000      -1.92810000      -0.66810000
H       -0.78570000      -0.53720000      -0.50130000
