18
Properties=species:S:1:pos:R:3 gdb_28413=T pbc="F F F"
C        0.02380000       1.50650000       0.04170000
C        0.04560000      -0.00230000       0.01990000
C        0.02680000      -0.70530000      -1.18500000
C        0.04520000      -2.10270000      -1.23110000
N        0.09470000      -2.78320000      -2.46110000
C        0.08120000      -2.80110000      -0.01950000
C        0.09980000      -2.11870000       1.19000000
C        0.08300000      -0.72730000       1.21890000
O        0.10060000      -0.12110000       2.44920000
H        0.91580000       1.92450000       0.52800000
H       -0.00850000       1.91240000      -0.97200000
H       -0.85270000       1.89900000       0.57530000
H        0.00150000      -0.14520000      -2.11650000
H       -0.32650000      -2.27090000      -3.22410000
H       -0.28850000      -3.71770000      -2.41990000
H        0.09870000      -3.88700000      -0.02410000
H        0.12570000      -2.65740000       2.13070000
H        0.09380000       0.83310000       2.33140000
