16
Properties=species:S:1:pos:R:3 gdb_12204=T pbc="F F F"
C        0.60270000       1.42150000      -0.14570000
C        0.02800000       0.03970000       0.09440000
O        0.59400000      -0.97020000      -0.78970000
C        1.25040000      -1.65910000       0.29570000
C        2.70010000      -1.52470000       0.28060000
C        3.89180000      -1.36110000       0.32750000
C        0.53610000      -0.73830000       1.34270000
O        1.30240000      -0.08970000       2.30740000
H        1.69220000       1.42320000      -0.05290000
H        0.34700000       1.76160000      -1.15350000
H        0.19160000       2.13330000       0.57710000
H       -1.06410000       0.05510000      -0.00700000
H        0.96620000      -2.71730000       0.32810000
H        4.94860000      -1.25040000       0.33760000
H       -0.26690000      -1.25980000       1.86780000
H        2.18880000       0.04760000       1.94800000
