18
Properties=species:S:1:pos:R:3 gdb_13774=T pbc="F F F"
C        1.01610000      -0.28950000      -1.00130000
N        0.00740000       0.09250000      -0.02320000
C       -0.11080000       1.54130000       0.08320000
C       -1.27250000      -0.54350000      -0.13290000
C       -1.80110000      -1.28580000      -1.33130000
C       -1.50510000      -2.05230000      -0.03870000
C       -0.43590000      -3.00560000       0.01020000
N        0.41550000      -3.78850000       0.06240000
H        1.97300000       0.15090000      -0.70670000
H        1.14810000      -1.37210000      -1.02390000
H        0.78320000       0.06150000      -2.02330000
H       -0.46780000       2.02380000      -0.84530000
H       -0.79840000       1.80420000       0.89250000
H        0.86900000       1.96350000       0.32530000
H       -2.02130000       0.00500000       0.42940000
H       -2.84060000      -1.17970000      -1.62100000
H       -1.12130000      -1.47120000      -2.15410000
H       -2.36060000      -2.34910000       0.55920000
