16
Properties=species:S:1:pos:R:3 gdb_77339=T pbc="F F F"
O        0.29160000       1.23400000       0.47120000
C        0.07500000      -0.08160000       0.07160000
C       -1.40670000      -0.51090000      -0.01370000
C       -1.34570000      -1.78400000      -0.91160000
C       -0.27270000      -1.46200000      -1.97280000
C        0.56240000      -0.34730000      -1.35580000
O        1.41490000       0.32290000      -1.88040000
C       -2.04180000      -0.74520000       1.27670000
N       -2.54460000      -0.95760000       2.29530000
H        0.96740000       1.58550000      -0.12900000
H        0.59540000      -0.79800000       0.73470000
H       -1.95410000       0.28810000      -0.52880000
H       -1.04460000      -2.63830000      -0.29920000
H       -2.32040000      -2.01830000      -1.34120000
H        0.35130000      -2.31840000      -2.24250000
H       -0.70390000      -1.08120000      -2.90500000
