23
Properties=species:S:1:pos:R:3 gdb_86911=T pbc="F F F"
O       -0.02530000       1.31340000      -0.30140000
C        0.07400000      -0.05950000       0.00010000
C        0.21350000      -0.50500000       1.48200000
C       -0.82710000      -1.62350000       1.18940000
C       -1.86760000      -1.95520000       2.25400000
C       -2.89410000      -2.96930000       1.79180000
C       -2.61050000      -4.44730000       1.90530000
C       -3.65320000      -3.80550000       2.78920000
C       -1.26580000      -0.81600000      -0.06850000
H        0.85250000       1.70240000      -0.23300000
H        0.83400000      -0.54920000      -0.62660000
H        1.20060000      -0.79450000       1.85250000
H       -0.20900000       0.26340000       2.13820000
H       -0.31600000      -2.54280000       0.88190000
H       -1.36100000      -2.33920000       3.15060000
H       -2.37360000      -1.02890000       2.56090000
H       -3.45460000      -2.66580000       0.91070000
H       -2.94270000      -5.10590000       1.11040000
H       -1.67490000      -4.74800000       2.36660000
H       -3.41630000      -3.67800000       3.84070000
H       -4.69770000      -4.02350000       2.59500000
H       -2.08310000      -0.12750000       0.17130000
H       -1.50820000      -1.35480000      -0.98700000
