14
Properties=species:S:1:pos:R:3 gdb_27043=T pbc="F F F"
N        0.11290000       1.37500000       0.16060000
C       -0.00450000       0.01400000       0.04120000
C       -1.09830000      -0.81070000       0.01830000
O       -0.64360000      -2.13730000      -0.00950000
C        0.71930000      -2.13300000      -0.01470000
N        1.52000000      -3.10860000      -0.01920000
N        1.10460000      -0.78980000      -0.01160000
C       -2.49190000      -0.49860000      -0.01100000
O       -3.41500000      -1.28880000      -0.03800000
H        0.85820000       1.79540000      -0.37820000
H       -0.75460000       1.88290000       0.07040000
H        1.01580000      -3.99130000      -0.01510000
H        2.05880000      -0.51270000       0.14520000
H       -2.67610000       0.60440000      -0.00980000
