15
Properties=species:S:1:pos:R:3 gdb_130957=T pbc="F F F"
O       -0.12140000      -0.03430000       0.01520000
C        0.00180000       1.15910000      -0.05370000
C        1.33060000       1.88480000      -0.11970000
C        1.38380000       2.85270000      -1.31060000
N        2.55900000       3.70790000      -1.26010000
N        2.74720000       4.63340000      -0.32730000
C        3.93240000       5.11650000      -0.67960000
N        4.44010000       4.50980000      -1.77560000
N        3.55490000       3.61330000      -2.13380000
H       -0.88880000       1.83050000      -0.06210000
H        1.43430000       2.47310000       0.80170000
H        2.14100000       1.15350000      -0.16280000
H        1.44430000       2.31890000      -2.26020000
H        0.50080000       3.49900000      -1.32500000
H        4.43010000       5.91020000      -0.14670000
