15
Properties=species:S:1:pos:R:3 gdb_27817=T pbc="F F F"
C        0.02260000       1.46520000      -0.04950000
C       -0.06950000      -0.02340000       0.00050000
N       -1.19550000      -0.65010000      -0.08870000
C       -1.10720000      -2.02860000      -0.02480000
C       -2.41270000      -2.75060000      -0.12830000
N       -0.01390000      -2.72200000       0.11370000
C        1.18270000      -2.05870000       0.20850000
O        2.27000000      -2.52480000       0.33720000
O        1.11220000      -0.61950000       0.14400000
H        0.66510000       1.76950000      -0.88170000
H       -0.97190000       1.89250000      -0.16780000
H        0.48690000       1.83920000       0.86840000
H       -2.90300000      -2.48610000      -1.07110000
H       -2.26310000      -3.82770000      -0.07020000
H       -3.07980000      -2.41650000       0.67340000
