16
Properties=species:S:1:pos:R:3 gdb_32517=T pbc="F F F"
O       -0.04850000       1.40950000       0.00710000
C        0.00740000      -0.00870000       0.00190000
C       -1.39460000      -0.53620000       0.01220000
C       -2.53060000       0.22880000       0.02340000
N       -3.61730000      -0.62480000       0.03020000
C       -3.20220000      -1.91440000       0.02370000
C       -1.81440000      -1.91210000       0.01240000
C       -0.98340000      -3.10630000       0.00280000
O       -1.39930000      -4.24760000       0.00150000
H        0.85270000       1.74360000       0.00090000
H        0.54310000      -0.37990000      -0.88760000
H        0.55840000      -0.38580000       0.87950000
H       -2.65110000       1.29800000       0.02700000
H       -4.57830000      -0.32840000       0.03890000
H       -3.88860000      -2.74490000       0.02730000
H        0.11340000      -2.90900000      -0.00750000
