23
Properties=species:S:1:pos:R:3 gdb_87394=T pbc="F F F"
C       -0.02570000       1.50390000      -0.29890000
C        0.07480000       0.00440000      -0.11850000
C        1.41250000      -0.69190000      -0.24170000
C        0.70800000      -0.64500000       1.08100000
C        1.20510000      -0.08080000       2.41900000
C        0.65450000       1.22120000       2.97270000
O        0.64740000      -1.22570000       3.11390000
C        0.19380000      -1.84290000       1.88400000
C       -1.29350000      -2.14110000       1.90220000
H        0.85900000       2.01500000       0.09200000
H       -0.10780000       1.75640000      -1.36200000
H       -0.90210000       1.91870000       0.21030000
H       -0.77160000      -0.54360000      -0.52850000
H        1.46890000      -1.64350000      -0.76220000
H        2.29100000      -0.06420000      -0.36700000
H        2.30270000      -0.08430000       2.49900000
H       -0.42910000       1.28130000       2.83930000
H        0.87150000       1.27450000       4.04450000
H        1.11820000       2.08760000       2.49060000
H        0.75930000      -2.76680000       1.68900000
H       -1.87470000      -1.22760000       2.05740000
H       -1.60870000      -2.60140000       0.95890000
H       -1.52490000      -2.84060000       2.71190000
