19
Properties=species:S:1:pos:R:3 gdb_3104=T pbc="F F F"
C        0.00460000       1.19710000      -0.36930000
O       -0.11580000       0.04600000       0.44180000
C       -1.32640000      -0.62090000       0.25880000
C       -1.42660000      -1.72200000      -0.78150000
C       -0.26890000      -2.04000000      -1.70390000
C       -1.38190000      -2.05340000       0.70620000
C       -0.18640000      -2.71820000       1.35610000
H        0.97150000       1.65280000      -0.14190000
H       -0.03550000       0.95130000      -1.43960000
H       -0.79120000       1.92610000      -0.15220000
H       -2.20050000       0.01210000       0.42490000
H       -2.40450000      -1.83180000      -1.24470000
H        0.68510000      -1.72770000      -1.27360000
H       -0.20910000      -3.11390000      -1.91340000
H       -0.38370000      -1.52480000      -2.66400000
H       -2.33470000      -2.35790000       1.13230000
H        0.75450000      -2.28350000       1.01580000
H       -0.22600000      -2.59590000       2.44380000
H       -0.16850000      -3.79260000       1.14290000
