14
Properties=species:S:1:pos:R:3 gdb_46874=T pbc="F F F"
O        0.39930000      -0.10370000       0.07540000
C        0.15930000       1.04430000       0.30230000
O       -0.93100000       1.39090000       1.03040000
C       -1.29510000       2.75820000       1.24250000
C       -0.11260000       3.67920000       1.43700000
N        1.03420000       3.10030000       2.11170000
C        1.13000000       3.39280000       0.65710000
C        1.06430000       2.19150000      -0.21590000
O        1.63500000       2.09060000      -1.27070000
H       -1.90370000       3.11070000       0.39960000
H       -1.92650000       2.74630000       2.13530000
H       -0.36940000       4.72250000       1.60710000
H        1.55290000       3.80440000       2.62910000
H        1.75900000       4.20470000       0.30710000
