17
Properties=species:S:1:pos:R:3 gdb_132350=T pbc="F F F"
C        0.06010000       1.48950000       0.04150000
C        0.04370000      -0.01600000      -0.01820000
C        0.08860000      -0.68990000      -1.24070000
C        0.06930000      -2.07400000      -1.20830000
F        0.11060000      -2.75920000      -2.35080000
C        0.00770000      -2.75570000      -0.00470000
C       -0.03380000      -1.99460000       1.16560000
C       -0.10230000      -2.65220000       2.51950000
N       -0.01600000      -0.65600000       1.15620000
H        0.11690000       1.93620000      -0.95390000
H       -0.84140000       1.85770000       0.54120000
H        0.91460000       1.83490000       0.63170000
H        0.13700000      -0.16330000      -2.18560000
H       -0.00700000      -3.83830000       0.01320000
H        0.74980000      -2.34350000       3.13310000
H       -1.00670000      -2.33500000       3.04840000
H       -0.10440000      -3.74210000       2.44360000
