18
Properties=species:S:1:pos:R:3 gdb_46901=T pbc="F F F"
N       -0.07680000       1.30350000      -0.28310000
C       -0.00980000       0.08740000       0.05400000
O        1.19210000      -0.55690000       0.16630000
C        1.45000000      -1.59750000       1.12400000
C        0.79820000      -2.90720000       0.76210000
C        0.06050000      -3.69890000       1.81480000
C       -0.70860000      -2.92550000       0.77310000
C       -1.38480000      -1.62690000       1.13320000
O       -1.16800000      -0.60580000       0.15030000
H        0.86760000       1.66850000      -0.39500000
H        2.53910000      -1.68860000       1.12540000
H        1.15310000      -1.26330000       2.12470000
H        1.28960000      -3.46340000      -0.02930000
H        0.07250000      -4.78020000       1.74260000
H        0.06420000      -3.32330000       2.83360000
H       -1.19620000      -3.49360000      -0.01220000
H       -2.47100000      -1.74310000       1.15850000
H       -1.07600000      -1.27000000       2.12230000
