18
Properties=species:S:1:pos:R:3 gdb_46305=T pbc="F F F"
O       -0.04010000       0.02720000       0.12880000
C       -0.06420000       1.22480000       0.02970000
N       -1.08180000       2.13980000      -0.06640000
C       -0.22690000       3.32880000      -0.04600000
C        1.00880000       2.35710000      -0.00220000
C        1.97380000       2.39400000       1.20760000
C        3.34700000       2.85260000       0.65120000
C        3.19120000       2.66960000      -0.83760000
C        1.93400000       2.40210000      -1.18680000
H       -2.08340000       2.02800000      -0.01470000
H       -0.30200000       3.95150000      -0.94320000
H       -0.34390000       3.95280000       0.84660000
H        1.60610000       3.02910000       2.01740000
H        2.05690000       1.37660000       1.60220000
H        3.56600000       3.90180000       0.89310000
H        4.17520000       2.26590000       1.06410000
H        4.01870000       2.77550000      -1.53070000
H        1.57580000       2.25480000      -2.19980000
