15
Properties=species:S:1:pos:R:3 gdb_14936=T pbc="F F F"
O       -0.92110000       1.31060000      -0.00470000
C        0.19500000       0.93070000      -0.23920000
C        1.43240000       1.77260000      -0.09550000
N        2.54250000       1.22780000      -0.39610000
C        3.75380000       2.03720000      -0.32880000
C        3.46880000       3.54270000      -0.33510000
C        2.33300000       3.82650000       0.63930000
O        1.18040000       3.02300000       0.33650000
H        0.43640000      -0.09010000      -0.59530000
H        4.30480000       1.74970000       0.57730000
H        4.39330000       1.75410000      -1.17170000
H        4.35630000       4.11860000      -0.05520000
H        3.17070000       3.86210000      -1.33980000
H        2.63970000       3.60920000       1.67070000
H        1.98850000       4.86150000       0.59370000
