20
Properties=species:S:1:pos:R:3 gdb_63541=T pbc="F F F"
C       -0.06640000       1.53360000      -0.01580000
C       -0.11050000       0.02480000       0.08190000
C       -1.24130000      -0.65470000      -0.65680000
O        1.18040000      -0.62210000      -0.06000000
C        0.54820000      -0.65520000       1.20550000
C        1.26040000      -0.17090000       2.47410000
N        1.01150000      -1.49570000       3.15740000
C       -0.45080000      -1.65600000       3.19780000
C        0.24330000      -1.94960000       1.92410000
H        0.78640000       1.93810000       0.53400000
H        0.02350000       1.84600000      -1.06210000
H       -0.98390000       1.97590000       0.38740000
H       -1.18650000      -0.43160000      -1.72800000
H       -1.19830000      -1.73870000      -0.53100000
H       -2.21100000      -0.30010000      -0.29070000
H        2.33070000      -0.02850000       2.31020000
H        0.84830000       0.69040000       3.01090000
H       -0.77050000      -2.49770000       3.80490000
H       -1.08120000      -0.77190000       3.27830000
H        0.35290000      -2.94600000       1.51000000
