22
Properties=species:S:1:pos:R:3 gdb_78305=T pbc="F F F"
C       -0.11400000       1.57560000       0.03780000
C        0.03380000       0.06200000      -0.09120000
C        0.48690000      -0.78110000      -1.23630000
C        1.56560000      -0.35940000      -2.23890000
C        2.74070000      -1.24110000      -1.67950000
C        2.57520000      -0.26280000      -0.46360000
C        3.60320000      -0.09840000       0.62710000
C        2.29790000       0.82000000      -1.55140000
N        1.25560000      -0.77420000       0.04730000
H       -0.20990000       2.08410000      -0.92470000
H       -1.02170000       1.79180000       0.60860000
H        0.72010000       2.02860000       0.58090000
H       -0.75000000      -0.44360000       0.47290000
H       -0.07100000      -1.68590000      -1.47370000
H        1.29850000      -0.34420000      -3.29530000
H        2.53740000      -2.29680000      -1.48410000
H        3.68090000      -1.11410000      -2.22170000
H        4.58080000       0.16190000       0.20950000
H        3.31110000       0.69450000       1.32450000
H        3.70250000      -1.02480000       1.20100000
H        3.21910000       1.06880000      -2.08370000
H        1.77140000       1.73640000      -1.30960000
