17
Properties=species:S:1:pos:R:3 gdb_42957=T pbc="F F F"
O       -0.09200000       0.02380000       0.35470000
C       -0.08570000       1.20120000       0.08400000
C       -1.28940000       2.09640000      -0.16530000
N       -1.47340000       2.93630000       1.05310000
C       -0.82490000       3.50980000      -0.13360000
C        0.69160000       3.46390000      -0.05600000
C        1.48960000       3.70990000       1.26030000
C        1.96590000       2.22950000       1.16590000
N        1.02870000       2.02690000       0.03130000
H       -2.15280000       1.73860000      -0.71180000
H       -2.44250000       3.24400000       1.09070000
H       -1.32320000       4.29040000      -0.69730000
H        1.13540000       3.94030000      -0.93770000
H        2.26620000       4.47450000       1.21390000
H        0.83280000       3.88890000       2.11220000
H        3.01160000       2.10260000       0.87180000
H        1.74750000       1.58110000       2.01750000
