19
Properties=species:S:1:pos:R:3 gdb_73747=T pbc="F F F"
C       -0.02850000       1.47220000       0.09040000
C        0.01210000      -0.01170000       0.02250000
C        0.00770000      -0.84660000      -1.03940000
C       -0.03660000      -0.57350000      -2.41650000
C       -0.07390000      -0.37080000      -3.60590000
C        0.06510000      -2.24540000      -0.38220000
C       -0.97750000      -2.05170000       0.76750000
C        0.07120000      -0.97470000       1.21570000
C        1.15430000      -1.99090000       0.71090000
H        0.85340000       1.87210000       0.60790000
H       -0.06780000       1.90940000      -0.91060000
H       -0.90280000       1.82200000       0.65500000
H       -0.10690000      -0.18370000      -4.65010000
H        0.07250000      -3.11500000      -1.03710000
H       -1.97550000      -1.70290000       0.49220000
H       -1.03610000      -2.90590000       1.44950000
H        0.08570000      -0.54890000       2.21910000
H        1.29760000      -2.83930000       1.38750000
H        2.11490000      -1.58630000       0.38350000
