17
Properties=species:S:1:pos:R:3 gdb_45218=T pbc="F F F"
O        0.10590000       0.18760000      -0.92430000
C        0.05990000       1.21160000      -0.29820000
C       -1.20580000       1.86830000       0.29840000
N       -0.79900000       3.10110000       0.97020000
C       -0.30650000       2.95690000       2.38290000
C        1.14640000       3.16440000       1.92190000
N        1.71430000       1.86900000       1.44020000
C        1.23500000       2.14310000       0.03820000
C        0.58750000       3.45930000       0.50590000
H       -1.89590000       2.07940000      -0.53000000
H       -1.72150000       1.18180000       0.97600000
H       -0.70950000       3.75460000       3.01580000
H       -0.49910000       1.98480000       2.84870000
H        1.81800000       3.80270000       2.49650000
H        2.72630000       1.85010000       1.48110000
H        2.00510000       2.14640000      -0.73500000
H        0.67760000       4.37970000      -0.07200000
