22
Properties=species:S:1:pos:R:3 gdb_64430=T pbc="F F F"
C       -0.24050000       1.60300000      -0.05970000
C       -0.04490000       0.07730000       0.00730000
C       -1.42820000      -0.60060000       0.03030000
C        0.73040000      -0.45760000      -1.21320000
C        2.11630000       0.12920000      -1.43960000
O        3.11020000      -0.21040000      -0.46480000
C        2.98060000       0.21590000       0.82410000
N        1.99360000       0.24550000       1.60570000
C        0.68370000      -0.31550000       1.31450000
H        0.70180000       2.14860000       0.03240000
H       -0.71490000       1.89780000      -1.00260000
H       -0.88820000       1.93800000       0.75720000
H       -2.00450000      -0.34360000      -0.86500000
H       -1.33730000      -1.69190000       0.06730000
H       -2.00920000      -0.28230000       0.90230000
H        0.82100000      -1.54870000      -1.13390000
H        0.15030000      -0.25730000      -2.12430000
H        2.52700000      -0.25160000      -2.37850000
H        2.06790000       1.22210000      -1.51890000
H        3.95760000       0.52780000       1.19810000
H        0.03400000      -0.04890000       2.15610000
H        0.77840000      -1.41200000       1.33630000
