13
Properties=species:S:1:pos:R:3 gdb_9017=T pbc="F F F"
N        0.25510000       1.05950000       0.77510000
C        0.16650000      -0.17140000       0.15950000
N        1.11160000      -0.84590000      -0.39200000
C        2.45110000      -0.27840000      -0.41270000
C        3.02710000       0.00380000       0.91490000
N        3.42320000       0.25090000       1.97330000
C       -1.16850000      -0.70730000       0.09760000
C       -2.29650000      -1.12080000       0.07020000
H        1.13790000       1.31810000       1.19260000
H       -0.55280000       1.35190000       1.30210000
H        3.11510000      -0.98160000      -0.92420000
H        2.48040000       0.66300000      -0.98460000
H       -3.28560000      -1.50730000       0.03160000
