15
Properties=species:S:1:pos:R:3 gdb_129935=T pbc="F F F"
N        0.61650000       0.89850000      -0.90980000
C        0.21890000      -0.29090000      -0.29920000
C       -1.05950000      -0.80400000      -0.15580000
N       -0.95540000      -1.91870000       0.61890000
N        0.30350000      -2.19010000       0.98160000
C        1.02100000      -1.21190000       0.42950000
N        2.40350000      -1.21020000       0.68820000
C        3.40440000      -0.71420000      -0.08250000
O        3.28080000      -0.10660000      -1.13040000
H        1.56120000       0.81910000      -1.28030000
H       -0.02840000       1.20500000      -1.62590000
H       -2.00810000      -0.45040000      -0.52640000
H       -1.69200000      -2.53170000       0.91940000
H        2.67290000      -1.77600000       1.48040000
H        4.39290000      -0.92150000       0.36680000
