18
Properties=species:S:1:pos:R:3 gdb_43388=T pbc="F F F"
O       -0.04560000      -0.08830000       0.20070000
C       -0.08820000       1.12820000       0.10570000
C       -1.31350000       1.88950000      -0.03540000
C       -1.31460000       3.24850000      -0.08860000
N       -0.20660000       4.02480000      -0.00020000
C        1.06440000       3.44720000       0.37510000
C        1.38680000       3.16510000       1.87390000
C        2.01000000       1.81060000       1.42980000
C        1.22630000       1.92710000       0.09330000
H       -2.24490000       1.34420000      -0.11730000
H       -2.24290000       3.79680000      -0.22540000
H       -0.32060000       5.02240000       0.05840000
H        1.86570000       4.02860000      -0.09030000
H        2.02390000       3.88450000       2.39350000
H        0.47040000       3.01730000       2.45170000
H        3.09050000       1.88020000       1.28070000
H        1.79180000       0.92840000       2.03250000
H        1.76420000       1.64690000      -0.81700000
