17
Properties=species:S:1:pos:R:3 gdb_73198=T pbc="F F F"
C       -0.10910000       1.26780000      -0.37290000
C        0.10670000      -0.15970000       0.03560000
O       -1.12450000      -0.90620000       0.19880000
C       -0.71300000      -1.41030000       1.49800000
C        0.66480000      -0.75800000       1.35030000
O        1.59850000      -1.58130000       0.62500000
C        1.20690000      -1.02120000      -0.64950000
C        0.70200000      -2.04610000      -1.64470000
O        0.59320000      -1.81410000      -2.82030000
H        0.83740000       1.81560000      -0.40090000
H       -0.55500000       1.30150000      -1.37290000
H       -0.79030000       1.76820000       0.32090000
H       -1.34010000      -0.99640000       2.29740000
H       -0.71030000      -2.50350000       1.55040000
H        1.12100000      -0.22570000       2.18610000
H        2.01510000      -0.43340000      -1.10170000
H        0.42780000      -3.02450000      -1.19620000
