15
Properties=species:S:1:pos:R:3 gdb_127830=T pbc="F F F"
C       -0.10400000       1.41440000      -0.00310000
N       -0.15370000      -0.03380000      -0.03220000
C        0.54000000      -0.62510000      -0.92480000
N        1.37000000      -0.04250000      -1.86340000
C        0.52370000      -2.10230000      -0.97950000
N        1.14760000      -2.78960000      -1.93460000
N        0.86000000      -4.03320000      -1.58720000
N        0.11160000      -4.13960000      -0.49470000
N       -0.11040000      -2.92000000      -0.09450000
H        0.92120000       1.79490000       0.12900000
H       -0.50390000       1.86740000      -0.92650000
H       -0.71060000       1.78220000       0.82750000
H        1.19970000       0.92300000      -2.09230000
H        1.66870000      -0.62260000      -2.63170000
H        1.18060000      -4.83850000      -2.10430000
