19
Properties=species:S:1:pos:R:3 gdb_91462=T pbc="F F F"
C       -0.03460000       1.52920000      -0.06870000
C        0.00630000       0.01040000       0.01000000
O        0.82280000      -0.50140000      -1.05920000
C        1.87200000      -1.22880000      -0.38500000
O        2.10460000      -0.47320000       0.77960000
C        0.74920000      -0.57510000       1.27650000
C        0.57060000       0.11000000       2.60720000
C        0.50840000      -2.08340000       1.19490000
C        1.23390000      -2.50520000       0.16040000
H        0.96390000       1.94520000       0.08880000
H       -0.38210000       1.83640000      -1.05900000
H       -0.72060000       1.94490000       0.67660000
H       -1.00350000      -0.40960000      -0.07410000
H        2.74720000      -1.28580000      -1.02890000
H        0.85530000       1.16310000       2.55130000
H       -0.47440000       0.05120000       2.92770000
H        1.18970000      -0.37510000       3.36680000
H       -0.20780000      -2.62610000       1.79700000
H        1.26880000      -3.47960000      -0.30600000
