11
Properties=species:S:1:pos:R:3 gdb_576=T pbc="F F F"
N        0.01470000      -1.07440000       0.41180000
C       -0.00020000       0.05370000       0.16400000
C       -0.00730000       1.47890000      -0.16760000
C        1.39080000       2.07460000      -0.20430000
C        1.61000000       3.49010000       0.11150000
O        1.94460000       2.45990000       1.04540000
H       -0.48950000       1.60590000      -1.14440000
H       -0.61100000       2.01520000       0.57170000
H        2.08710000       1.57210000      -0.87540000
H        2.45320000       4.01660000      -0.33120000
H        0.76330000       4.11590000       0.39050000
