18
Properties=species:S:1:pos:R:3 gdb_79427=T pbc="F F F"
C       -0.76450000       1.50430000      -0.14000000
N       -0.49550000       0.07630000       0.00510000
C       -1.19340000      -0.65690000       1.10580000
C       -0.05000000      -1.72000000       1.15880000
C        0.10040000      -1.62960000       2.68480000
C       -0.25350000      -0.17650000       2.27810000
C       -0.35840000       0.96800000       3.21910000
O       -1.29710000       1.72360000       3.30820000
C        0.59670000      -0.32550000       0.91820000
H        0.01090000       1.94650000      -0.77440000
H       -1.72390000       1.63260000      -0.65120000
H       -0.80680000       2.05990000       0.80700000
H       -2.27200000      -0.81320000       1.13460000
H        0.04200000      -2.57580000       0.49220000
H       -0.64670000      -2.15190000       3.28890000
H        1.10410000      -1.79330000       3.08790000
H        0.52670000       1.07580000       3.88960000
H        1.64870000      -0.07750000       0.76440000
