20
Properties=species:S:1:pos:R:3 gdb_79870=T pbc="F F F"
C       -0.15780000       1.57170000      -0.04470000
C        0.02390000       0.06900000       0.05730000
N        1.24130000      -0.55910000      -0.64050000
C        2.10680000      -0.14380000       0.57050000
C        3.19270000      -1.19810000       0.73200000
C        2.34030000      -2.46960000       0.47670000
C        0.99230000      -1.80590000       0.24510000
C        0.77140000      -0.62820000       1.21410000
O        0.43510000      -0.77810000       2.55320000
H        0.70390000       2.14200000       0.31130000
H       -0.34030000       1.85710000      -1.08590000
H       -1.03070000       1.88220000       0.54030000
H       -0.89770000      -0.43580000      -0.25610000
H        2.40320000       0.90420000       0.59490000
H        3.99530000      -1.06940000       0.00080000
H        3.63520000      -1.17020000       1.73190000
H        2.66880000      -3.03180000      -0.40140000
H        2.31420000      -3.15170000       1.33080000
H        0.14320000      -2.41790000      -0.06450000
H        0.40810000       0.09290000       2.96460000
