16
Properties=species:S:1:pos:R:3 gdb_85597=T pbc="F F F"
O        0.01300000       1.37850000       0.16800000
C       -0.00430000      -0.00810000       0.00490000
C       -1.43000000      -0.56890000      -0.14120000
C       -1.38800000      -2.07550000      -0.20870000
N       -2.24820000      -2.80280000       0.36100000
O       -0.31070000      -2.62690000      -0.86500000
C        0.46670000      -1.82650000      -1.74800000
C        0.75000000      -0.42020000      -1.24380000
O        1.46040000       0.35140000      -1.84550000
H        0.67000000       1.71200000      -0.46310000
H        0.47550000      -0.51300000       0.86340000
H       -2.05670000      -0.27600000       0.70060000
H       -1.88630000      -0.15450000      -1.04950000
H       -2.04420000      -3.79090000       0.19600000
H        1.40990000      -2.35680000      -1.90300000
H       -0.02290000      -1.73630000      -2.72840000
