21
Properties=species:S:1:pos:R:3 gdb_103369=T pbc="F F F"
C       -0.16260000       1.64390000       0.04560000
C       -0.03060000       0.12540000       0.02820000
C       -1.39740000      -0.51640000      -0.24920000
O       -1.93360000      -0.13460000      -1.51240000
C        1.12130000      -0.58270000      -0.75810000
C        2.41770000       0.10700000      -0.28580000
C        2.10790000       0.07580000       1.24640000
C        0.74050000      -0.63210000       1.15310000
O        1.03060000      -1.69340000       0.18710000
H        0.79350000       2.16690000       0.10090000
H       -0.68550000       1.97450000      -0.85610000
H       -0.76400000       1.95980000       0.90630000
H       -1.32670000      -1.60520000      -0.15830000
H       -2.12070000      -0.15860000       0.49290000
H       -1.44370000      -0.60630000      -2.19270000
H        1.04060000      -0.88150000      -1.80550000
H        3.28930000      -0.49560000      -0.54850000
H        2.55660000       1.11160000      -0.69190000
H        2.82190000      -0.53030000       1.80720000
H        2.05390000       1.06510000       1.70700000
H        0.26090000      -0.98300000       2.06850000
