21
Properties=species:S:1:pos:R:3 gdb_65203=T pbc="F F F"
C        0.06200000       1.54870000      -0.55030000
C        0.03960000       0.11400000      -0.06170000
C        1.16390000      -0.78670000      -0.42640000
N        1.02430000      -0.30140000       0.95980000
C       -1.35180000      -0.46580000       0.07290000
C       -1.60980000      -1.79750000       0.82970000
C       -2.57250000      -0.99510000       1.70400000
C       -1.87540000       0.12980000       2.35060000
N       -2.32760000       0.29890000       0.94830000
H        1.08910000       1.91230000      -0.66000000
H       -0.43300000       1.63890000      -1.52350000
H       -0.46860000       2.20320000       0.14800000
H        0.99590000      -1.85310000      -0.55330000
H        1.96180000      -0.38010000      -1.04250000
H        1.68320000       0.45520000       1.12790000
H       -1.79770000      -0.49350000      -0.92720000
H       -2.09310000      -2.55200000       0.20660000
H       -0.76120000      -2.24490000       1.35230000
H       -3.57590000      -1.30280000       1.98000000
H       -2.44730000       0.74890000       3.03510000
H       -0.81550000       0.04910000       2.56740000
