9
Properties=species:S:1:pos:R:3 gdb_3646=T pbc="F F F"
C        0.04430000      -1.17310000      -0.00420000
C        0.00730000       0.02740000       0.00260000
C       -0.02600000       1.44350000       0.01060000
N       -1.15610000       2.11810000       0.02960000
O       -0.73540000       3.44530000       0.03110000
C        0.59970000       3.42020000       0.01330000
N        1.11210000       2.23420000       0.00000000
H        0.07670000      -2.23520000      -0.01020000
H        1.11100000       4.37160000       0.01180000
