19
Properties=species:S:1:pos:R:3 gdb_81973=T pbc="F F F"
O        0.22700000       1.38560000       0.11280000
C        0.03190000      -0.02550000       0.01280000
C       -1.41450000      -0.50940000      -0.09540000
C       -2.41690000       0.31910000      -0.85190000
C       -1.70150000      -0.78790000      -1.57090000
C       -0.44120000      -0.42230000      -2.35010000
O       -0.48130000       0.92830000      -2.80940000
C        0.68960000      -0.54660000      -1.29440000
O        1.84450000       0.18220000      -1.65550000
H       -0.21780000       1.78200000      -0.64910000
H        0.51780000      -0.43590000       0.90090000
H       -1.78390000      -1.16900000       0.68070000
H       -3.45960000       0.15170000      -0.60510000
H       -2.19170000       1.34240000      -1.12570000
H       -2.25810000      -1.66290000      -1.88320000
H       -0.28690000      -1.10210000      -3.19760000
H        0.44610000       1.14340000      -2.98910000
H        0.94910000      -1.60570000      -1.17210000
H        1.84890000       0.94900000      -1.06120000
