14
Properties=species:S:1:pos:R:3 gdb_16480=T pbc="F F F"
O        0.05800000       1.34900000      -0.14600000
C        0.11710000      -0.00860000      -0.01900000
C       -0.09510000      -0.91690000      -1.24480000
C        0.60170000      -2.22210000      -0.89170000
N        0.05530000      -2.06820000       0.52770000
C       -0.98090000      -1.08980000      -0.05110000
C        0.79880000      -0.86010000       0.98100000
N        1.53320000      -0.63370000       1.97340000
H       -0.00110000       1.72570000       0.74040000
H       -0.33260000      -0.47190000      -2.20370000
H        0.14920000      -3.09700000      -1.36480000
H        1.69400000      -2.28030000      -0.94500000
H       -2.03670000      -1.07120000       0.17100000
H        1.68520000      -1.49240000       2.50720000
