21
Properties=species:S:1:pos:R:3 gdb_110207=T pbc="F F F"
C        0.01350000       1.40960000      -0.26480000
O       -0.01350000       0.12450000       0.32240000
C       -1.22800000      -0.54230000       0.15680000
C       -1.49240000      -1.48150000      -1.07100000
C       -1.87950000      -1.16900000      -2.48230000
C       -0.41510000      -2.45180000      -0.52550000
C       -1.30180000      -2.00050000       0.66460000
C       -1.36650000      -2.51500000       2.06690000
O       -2.49510000      -2.15930000      -0.20970000
H        0.97790000       1.85870000      -0.01710000
H       -0.08670000       1.36660000      -1.35900000
H       -0.78980000       2.04940000       0.13050000
H       -2.09400000       0.07590000       0.42980000
H       -1.05020000      -0.68270000      -3.00560000
H       -2.13470000      -2.08620000      -3.02260000
H       -2.74630000      -0.50110000      -2.50710000
H       -0.54510000      -3.49400000      -0.82340000
H        0.62370000      -2.11870000      -0.53700000
H       -0.43850000      -2.27350000       2.59440000
H       -2.20120000      -2.05630000       2.60580000
H       -1.49990000      -3.60090000       2.07670000
