21
Properties=species:S:1:pos:R:3 gdb_95083=T pbc="F F F"
C        0.02480000       1.55110000      -0.13010000
C        0.02000000       0.04090000       0.06180000
O        0.59170000      -0.51210000      -1.13100000
C        1.09410000      -1.83790000      -1.00910000
C        1.67810000      -2.04310000       0.38160000
C        2.27240000      -0.72430000       0.90930000
C        0.79400000      -0.46940000       1.29380000
C        0.43640000       0.18490000       2.60690000
O        0.57130000      -1.92090000       1.31790000
H        1.04630000       1.94490000      -0.12860000
H       -0.42960000       1.79610000      -1.09360000
H       -0.54600000       2.05050000       0.65730000
H       -1.01460000      -0.32210000       0.17680000
H        0.29900000      -2.58180000      -1.17100000
H        1.85090000      -1.95380000      -1.79350000
H        2.22450000      -2.98370000       0.49170000
H        2.89770000      -0.87480000       1.79060000
H        2.75070000      -0.04960000       0.19770000
H        0.77640000       1.22430000       2.63360000
H       -0.64680000       0.17220000       2.76940000
H        0.91020000      -0.35920000       3.42830000
