19
Properties=species:S:1:pos:R:3 gdb_86329=T pbc="F F F"
C        0.03690000       1.40940000      -0.18220000
N       -0.06070000      -0.01130000       0.07700000
C       -1.32140000      -0.58250000       0.58350000
C       -0.48220000      -1.59810000       1.40430000
N       -0.20180000      -2.89270000       0.77540000
H       -0.22850000      -2.80420000      -0.23720000
H        1.56810000      -2.78300000       1.00610000
H       -0.89240000      -3.58620000       1.04010000
C        0.67610000      -0.57380000       1.22880000
C        2.12330000      -0.96470000       0.92000000
O        2.94830000      -0.11980000       0.68370000
O        2.41220000      -2.26940000       0.93090000
H        1.08000000       1.66020000      -0.38850000
H       -0.56690000       1.67050000      -1.05750000
H       -0.30690000       2.02180000       0.67280000
H       -1.88380000       0.10600000       1.23730000
H       -1.99810000      -0.97980000      -0.18260000
H       -0.79680000      -1.77610000       2.43270000
H        0.70860000       0.11940000       2.08680000
