15
Properties=species:S:1:pos:R:3 gdb_26072=T pbc="F F F"
N        0.56410000       1.59320000      -0.15380000
C        0.12440000       0.20720000       0.02460000
C        0.34470000      -0.63770000      -1.17540000
N        0.51750000      -1.25830000      -2.13540000
C        0.78400000      -0.40170000       1.23570000
C        1.30540000       0.28670000       2.28760000
O        1.79110000      -0.57160000       3.22010000
C        1.57500000      -1.82990000       2.75450000
C        0.96220000      -1.79280000       1.54440000
H        1.55540000       1.60770000      -0.37710000
H        0.07580000       2.01540000      -0.93770000
H       -0.96280000       0.23510000       0.18170000
H        1.39350000       1.33640000       2.50610000
H        1.91590000      -2.63010000       3.39000000
H        0.68240000      -2.63610000       0.93280000
