20
Properties=species:S:1:pos:R:3 gdb_38494=T pbc="F F F"
C        0.00430000       1.43830000       0.11970000
C        1.28320000       0.69910000      -0.02770000
N       -0.02560000      -0.02820000       0.03550000
C       -0.30990000      -0.57750000      -1.33030000
C        0.90000000      -0.31220000      -2.21520000
C        1.27980000       1.08010000      -2.63490000
C        1.89600000       0.51120000      -1.38520000
C        3.02770000      -0.47630000      -1.72830000
C        2.01430000      -1.31430000      -2.58030000
H       -0.28230000       1.84400000       1.08770000
H       -0.36370000       2.02320000      -0.71930000
H        1.93500000       0.57670000       0.83330000
H       -0.46390000      -1.65580000      -1.22250000
H       -1.24480000      -0.15100000      -1.71050000
H        1.90710000       1.21510000      -3.51400000
H        0.53190000       1.85420000      -2.51770000
H        3.89010000      -0.05220000      -2.25260000
H        3.38920000      -1.02380000      -0.85470000
H        1.84190000      -2.30900000      -2.16260000
H        2.23230000      -1.42110000      -3.64820000
