19
Properties=species:S:1:pos:R:3 gdb_49554=T pbc="F F F"
O        0.01580000      -0.01870000       0.32290000
C        0.02980000       1.14940000       0.02160000
C        1.26710000       1.99450000      -0.01610000
C        1.31760000       3.04710000      -1.17790000
C        0.56370000       4.03770000      -0.24440000
C        1.23970000       3.26670000       0.91680000
O        2.56840000       3.68440000       1.15400000
C        3.23440000       4.18240000      -0.01000000
C        2.78140000       3.49440000      -1.31880000
H       -0.91780000       1.66970000      -0.25270000
H        2.14090000       1.35430000       0.12310000
H        0.86880000       2.77600000      -2.13630000
H        0.75760000       5.10840000      -0.33870000
H       -0.51560000       3.87260000      -0.24820000
H        0.75180000       3.19800000       1.89060000
H        3.05420000       5.26320000      -0.08690000
H        4.30400000       4.04510000       0.16830000
H        3.40600000       2.62460000      -1.54950000
H        2.89440000       4.20430000      -2.14580000
