17
Properties=species:S:1:pos:R:3 gdb_10150=T pbc="F F F"
C        0.07770000       1.55800000       0.02090000
C       -0.00790000       0.02940000       0.01690000
C        0.75220000      -0.59700000       1.19050000
C        0.69790000      -2.15150000       1.20330000
C        1.55280000      -2.66340000       2.37170000
O        2.71900000      -2.91810000       2.25520000
C       -0.67230000      -2.64780000       1.32010000
N       -1.75070000      -3.04430000       1.44690000
H        1.11640000       1.89940000      -0.04610000
H       -0.46820000       1.98230000      -0.82660000
H       -0.35200000       1.97670000       0.93720000
H       -1.05760000      -0.28380000       0.05560000
H        0.39810000      -0.36250000      -0.92430000
H        1.81050000      -0.31660000       1.15050000
H        0.35400000      -0.21840000       2.13970000
H        1.14580000      -2.53330000       0.27970000
H        1.02190000      -2.73550000       3.34450000
