17
Properties=species:S:1:pos:R:3 gdb_94998=T pbc="F F F"
O       -0.10340000       1.41850000       0.06740000
C        0.00970000       0.00680000       0.02650000
C        0.80020000      -0.51100000       1.24160000
O        0.76250000      -1.92740000       1.39130000
C       -0.45700000      -2.55100000       1.11880000
C       -1.83630000      -2.04350000       1.45160000
O       -1.91940000      -0.62050000       1.43410000
C       -1.38720000      -0.59430000       0.07320000
C       -1.36460000      -2.12660000      -0.00030000
H        0.78170000       1.79680000       0.04420000
H        0.48390000      -0.32810000      -0.91080000
H        1.86070000      -0.25290000       1.14550000
H        0.39460000      -0.01420000       2.12970000
H       -0.34310000      -3.62490000       1.23340000
H       -2.58900000      -2.58140000       2.01810000
H       -2.08130000      -0.08150000      -0.59650000
H       -1.66210000      -2.73540000      -0.84420000
