17
Properties=species:S:1:pos:R:3 gdb_22759=T pbc="F F F"
C       -0.26450000       1.43540000       0.15320000
C        0.03800000      -0.04960000      -0.00280000
N        0.90430000      -0.42450000      -1.15100000
C        1.95890000      -1.04970000      -0.33480000
C        1.13660000      -0.63880000       0.87250000
N        1.23920000      -0.68670000       2.12920000
O        2.43690000      -1.30310000       2.51600000
C        0.60060000      -0.69170000      -2.44440000
O        1.32430000      -1.29610000      -3.20740000
H        0.65550000       2.02460000       0.11680000
H       -0.93210000       1.78040000      -0.64210000
H       -0.75510000       1.61200000       1.11490000
H       -0.89090000      -0.63530000       0.02630000
H        2.06070000      -2.12900000      -0.49460000
H        2.94610000      -0.58460000      -0.42370000
H        2.38560000      -1.27210000       3.47780000
H       -0.38510000      -0.27440000      -2.73570000
