21
Properties=species:S:1:pos:R:3 gdb_74729=T pbc="F F F"
C        0.14230000       1.42030000       0.08170000
C        0.03060000      -0.06310000      -0.01560000
C        0.05630000      -0.88150000      -1.07090000
C       -0.02720000      -2.26930000      -0.44430000
C        1.03380000      -2.09310000       0.75740000
C       -0.07000000      -1.03430000       1.19300000
C       -1.10260000      -0.58190000       2.26850000
C       -2.20670000      -1.09150000       1.23690000
C       -1.08950000      -2.05070000       0.70800000
H        0.99760000       1.71660000       0.70290000
H        0.27190000       1.87040000      -0.90690000
H       -0.74510000       1.87290000       0.54200000
H        0.16190000      -0.65280000      -2.12260000
H       -0.01170000      -3.14830000      -1.09060000
H        1.10960000      -2.96440000       1.41540000
H        2.02410000      -1.72500000       0.47450000
H       -1.08960000      -1.20210000       3.16850000
H       -1.12400000       0.47230000       2.56050000
H       -3.11120000      -1.54840000       1.64550000
H       -2.47910000      -0.30060000       0.53550000
H       -1.08620000      -2.93200000       1.35980000
