17
Properties=species:S:1:pos:R:3 gdb_38026=T pbc="F F F"
C       -0.00950000       1.40870000       0.06750000
C        1.29760000       0.69030000       0.00510000
C        1.98570000       0.36780000       1.30120000
C        1.19870000      -0.46330000       1.99460000
C        1.03090000      -1.20480000       3.28460000
C       -0.40630000      -1.82920000       3.09060000
N       -0.92140000      -1.44350000       1.76020000
C       -0.02370000      -0.71590000       1.22570000
N        0.01810000      -0.06900000      -0.03850000
H       -0.30210000       1.84080000       1.02090000
H       -0.40120000       1.91000000      -0.81280000
H        1.87230000       0.71580000      -0.91680000
H        2.95390000       0.76970000       1.57040000
H        1.79400000      -1.97870000       3.41600000
H        1.08160000      -0.55460000       4.16320000
H       -0.39190000      -2.92220000       3.16480000
H       -1.10310000      -1.47400000       3.85820000
