22
Properties=species:S:1:pos:R:3 gdb_113548=T pbc="F F F"
C        0.04520000       1.52180000      -0.44660000
C       -0.02420000       0.18420000       0.29800000
C       -1.39620000      -0.44680000       0.22360000
N       -1.72290000      -1.16410000      -1.03230000
C       -1.61070000      -1.90840000       0.21340000
C       -0.65740000      -3.06980000       0.46340000
O       -1.67730000      -3.75770000       1.22370000
C       -2.67420000      -2.74550000       0.93240000
C       -3.33330000      -2.20010000       2.18380000
H        1.04870000       1.95450000      -0.39240000
H       -0.21060000       1.38500000      -1.50170000
H       -0.65490000       2.25000000      -0.02170000
H        0.70650000      -0.51290000      -0.12720000
H        0.24700000       0.32470000       1.35250000
H       -2.19540000       0.14860000       0.66720000
H       -2.70110000      -1.03380000      -1.28220000
H       -0.36690000      -3.62000000      -0.44040000
H        0.23430000      -2.86220000       1.06730000
H       -3.43490000      -3.14520000       0.24280000
H       -2.58750000      -1.77750000       2.86290000
H       -4.06130000      -1.42120000       1.93030000
H       -3.86570000      -3.00010000       2.70780000
