20
Properties=species:S:1:pos:R:3 gdb_56658=T pbc="F F F"
C       -0.31300000       1.43440000       0.09160000
N       -0.02740000       0.01170000       0.18670000
C        1.27560000      -0.47120000      -0.25950000
C        0.90960000      -0.49770000       1.18660000
C        1.63130000       0.40330000       2.16750000
C        0.44680000      -1.84120000       1.76920000
O        1.55170000      -2.63390000       2.20300000
C       -0.53400000      -1.65380000       2.84170000
C       -1.29590000      -1.49100000       3.75780000
H        0.56700000       2.08860000       0.19030000
H       -0.76790000       1.63290000      -0.88410000
H       -1.03690000       1.71070000       0.86450000
H        1.27560000      -1.38070000      -0.85600000
H        2.01720000       0.26770000      -0.56280000
H        2.00580000       1.31300000       1.69530000
H        0.97470000       0.68790000       2.99640000
H        2.49340000      -0.12770000       2.58340000
H       -0.02690000      -2.39700000       0.95280000
H        1.69950000      -2.44780000       3.13550000
H       -1.98750000      -1.35950000       4.55320000
