23
Properties=species:S:1:pos:R:3 gdb_57092=T pbc="F F F"
C        0.10290000       1.59200000      -0.02500000
C        0.04010000       0.05050000      -0.03550000
C        0.67270000      -0.47220000      -1.24760000
C        1.21300000      -0.88150000      -2.24110000
C        0.66360000      -0.57410000       1.23310000
C       -0.01560000      -0.13710000       2.55320000
C        0.23900000      -1.28920000       3.56830000
C        0.93290000      -2.41820000       2.76260000
C        0.59930000      -2.10950000       1.29630000
H        1.14120000       1.93380000       0.02980000
H       -0.33920000       2.00320000      -0.93620000
H       -0.43990000       1.99510000       0.83410000
H       -1.02010000      -0.24480000      -0.05520000
H        1.67910000      -1.25130000      -3.12050000
H        1.72150000      -0.27740000       1.26310000
H        0.35810000       0.82460000       2.91400000
H       -1.09250000      -0.01190000       2.38480000
H        0.85390000      -0.96180000       4.41110000
H       -0.70720000      -1.63870000       3.99240000
H        2.01860000      -2.37140000       2.90750000
H        0.61410000      -3.41690000       3.07380000
H       -0.42160000      -2.44170000       1.06120000
H        1.27090000      -2.59290000       0.58320000
