12
Properties=species:S:1:pos:R:3 gdb_130509=T pbc="F F F"
O       -0.08580000       1.22960000       0.00950000
N        1.00870000       2.06420000       0.00360000
C        2.20090000       1.53080000      -0.01070000
C        2.38340000       0.13640000      -0.02000000
N        3.45120000      -0.62050000      -0.03440000
C        2.95140000      -1.93000000      -0.03670000
C        1.58300000      -2.02160000      -0.02390000
C        1.14840000      -0.65830000      -0.01260000
N       -0.04020000      -0.13690000       0.00160000
H        3.02060000       2.24260000      -0.01470000
H        3.65570000      -2.75180000      -0.04790000
H        0.96540000      -2.90480000      -0.02260000
