19
Properties=species:S:1:pos:R:3 gdb_37020=T pbc="F F F"
C        0.04860000       1.41260000       0.00910000
C        1.38050000       0.69160000       0.02510000
C        2.03930000       0.42460000       1.37800000
C        1.02720000      -0.47510000       2.07280000
C       -0.01790000      -0.77740000       1.29390000
C        0.06950000      -0.10140000      -0.03160000
C       -0.01280000      -0.78680000      -1.39520000
C        1.24680000      -0.29600000      -2.09440000
C        2.00690000       0.47710000      -1.31040000
H       -0.29860000       1.87260000       0.92910000
H       -0.20700000       1.94840000      -0.89990000
H        3.00890000      -0.07840000       1.26510000
H        2.23100000       1.34130000       1.95040000
H        1.15190000      -0.79970000       3.10070000
H       -0.84800000      -1.41240000       1.58490000
H       -0.01580000      -1.88080000      -1.29990000
H       -0.91940000      -0.52240000      -1.95440000
H        1.46640000      -0.54030000      -3.12870000
H        2.95160000       0.92280000      -1.60350000
