23
Properties=species:S:1:pos:R:3 gdb_97580=T pbc="F F F"
C        0.05440000       1.57400000      -0.29900000
C        0.00080000       0.11860000       0.20060000
C       -1.34500000      -0.44620000       0.17820000
C       -2.46570000      -0.88810000       0.15510000
C       -3.82100000      -1.43810000       0.13790000
C       -3.79220000      -2.94800000      -0.17590000
C       -4.56410000      -1.10910000       1.46850000
C       -6.07200000      -1.35590000       1.38720000
O       -3.98710000      -1.77940000       2.57990000
H        1.07980000       1.95440000      -0.26190000
H       -0.30230000       1.64420000      -1.33030000
H       -0.57540000       2.21960000       0.31930000
H        0.66820000      -0.50180000      -0.41170000
H        0.39900000       0.06850000       1.22230000
H       -4.38360000      -0.93600000      -0.66250000
H       -4.80210000      -3.36150000      -0.25760000
H       -3.27690000      -3.12810000      -1.12220000
H       -3.24750000      -3.49080000       0.60220000
H       -4.39410000      -0.04660000       1.67220000
H       -6.30010000      -2.41240000       1.20410000
H       -6.54330000      -1.06990000       2.33130000
H       -6.52830000      -0.77160000       0.58150000
H       -4.23440000      -2.70860000       2.52730000
