19
Properties=species:S:1:pos:R:3 gdb_1791=T pbc="F F F"
C        0.08330000       1.39920000      -0.46450000
C       -0.05170000       0.14450000       0.40970000
C       -1.41140000      -0.52310000       0.27860000
C       -2.56970000       0.22400000       0.91150000
O       -1.70420000      -1.06080000      -1.02700000
C       -1.55850000      -1.97830000       0.06450000
C       -0.44270000      -2.98870000      -0.01830000
H        1.09170000       1.81670000      -0.38860000
H       -0.10710000       1.15140000      -1.51260000
H       -0.62070000       2.18360000      -0.16990000
H        0.73670000      -0.56130000       0.13670000
H        0.11090000       0.40180000       1.46430000
H       -2.66570000       1.23080000       0.49310000
H       -3.50990000      -0.30370000       0.73420000
H       -2.42360000       0.32330000       1.99280000
H       -2.50870000      -2.40880000       0.39290000
H        0.48620000      -2.54840000      -0.38450000
H       -0.25720000      -3.43760000       0.96380000
H       -0.72230000      -3.79490000      -0.70510000
