21
Properties=species:S:1:pos:R:3 gdb_104464=T pbc="F F F"
O       -0.06820000       1.44540000       0.08920000
C        0.01720000       0.02580000      -0.02560000
C       -1.41840000      -0.50480000      -0.01130000
O       -2.05480000      -0.03560000       1.17830000
C       -2.20470000      -0.03790000      -1.25690000
C       -3.59140000      -0.68080000      -1.28010000
O       -3.50650000      -2.09760000      -1.25490000
C       -2.87590000      -2.56240000      -0.07350000
C       -1.44110000      -2.03750000       0.04840000
H        0.79810000       1.79000000       0.32090000
H        0.52860000      -0.26760000      -0.95390000
H        0.56380000      -0.40330000       0.82620000
H       -1.81140000       0.89660000       1.24850000
H       -2.28600000       1.05390000      -1.25420000
H       -1.65860000      -0.32720000      -2.16320000
H       -4.17750000      -0.31980000      -0.42100000
H       -4.12870000      -0.42260000      -2.19720000
H       -3.45340000      -2.25770000       0.81260000
H       -2.88490000      -3.65480000      -0.12940000
H       -0.83830000      -2.44110000      -0.77360000
H       -1.00050000      -2.37300000       0.99370000
