19
Properties=species:S:1:pos:R:3 gdb_92515=T pbc="F F F"
C        0.21070000       1.51030000      -0.11120000
C       -0.08150000       0.00030000      -0.01950000
C        0.39430000      -0.80790000      -1.24550000
C        1.76160000      -1.38330000      -0.86760000
O        2.83000000      -0.39980000      -0.92220000
C        3.13780000      -0.59850000       0.47330000
C        1.85650000      -1.44190000       0.67070000
C        0.67300000      -0.61510000       1.17540000
O        0.38480000      -0.45640000       2.33420000
H        1.26060000       1.68890000      -0.35850000
H       -0.40030000       1.96530000      -0.89690000
H       -0.02250000       2.00440000       0.83610000
H       -1.15190000      -0.13280000       0.16500000
H       -0.29030000      -1.63950000      -1.45000000
H        0.46320000      -0.20660000      -2.15690000
H        2.02890000      -2.28410000      -1.43040000
H        4.06350000      -1.17190000       0.60920000
H        3.21120000       0.34280000       1.02850000
H        1.95430000      -2.38930000       1.19960000
