20
Properties=species:S:1:pos:R:3 gdb_97207=T pbc="F F F"
C       -0.10010000       1.44300000      -0.05200000
N       -0.15100000      -0.00770000      -0.13450000
C        0.55770000      -0.61570000      -0.97430000
O        1.40720000      -0.05030000      -1.88780000
C        2.08600000      -1.10850000      -2.56230000
O        1.31840000      -2.26320000      -2.39650000
C        0.61940000      -2.13050000      -1.14340000
C        1.42020000      -2.77080000      -0.00150000
C       -0.76340000      -2.75130000      -1.29270000
H        0.67050000       1.90340000      -0.68070000
H       -1.07540000       1.85420000      -0.33760000
H        0.07250000       1.73400000       0.98990000
H        2.15690000      -0.86720000      -3.62680000
H        3.09410000      -1.20910000      -2.12800000
H        2.42280000      -2.33880000       0.07400000
H        0.90790000      -2.60340000       0.94930000
H        1.51900000      -3.84640000      -0.17250000
H       -0.68240000      -3.83380000      -1.42630000
H       -1.35440000      -2.54110000      -0.39850000
H       -1.27760000      -2.32850000      -2.15900000
