19
Properties=species:S:1:pos:R:3 gdb_109055=T pbc="F F F"
O        0.01510000       1.43340000      -0.12270000
C        0.00060000       0.02940000       0.04500000
C       -1.41220000      -0.47760000       0.08690000
C       -2.48620000       0.31410000       0.06430000
C       -3.85630000      -0.24470000       0.10420000
C       -4.25920000      -1.28020000      -0.95640000
C       -3.93130000      -1.71290000       0.44150000
O       -2.76770000      -2.39830000       0.79440000
C       -1.56880000      -1.97800000       0.15760000
H        0.92910000       1.72850000      -0.09340000
H        0.54580000      -0.47500000      -0.77480000
H        0.51310000      -0.26800000       0.97800000
H       -2.36070000       1.39010000       0.02700000
H       -4.63670000       0.41180000       0.47390000
H       -5.29880000      -1.31980000      -1.26420000
H       -3.54730000      -1.45990000      -1.75380000
H       -4.74320000      -2.06100000       1.07030000
H       -1.49720000      -2.42370000      -0.85020000
H       -0.75900000      -2.42230000       0.74920000
