15
Properties=species:S:1:pos:R:3 gdb_27331=T pbc="F F F"
N        0.03480000       1.36040000       0.15080000
C       -0.00950000      -0.01610000       0.05340000
C       -1.14000000      -0.74810000       0.02690000
O       -1.14030000      -2.13190000      -0.01200000
C        0.03730000      -2.76550000      -0.01540000
O       -0.10070000      -4.09930000      -0.04110000
C        1.23300000      -2.13860000       0.00060000
C        1.30550000      -0.69670000       0.01700000
N        2.35460000       0.05400000      -0.00720000
H        0.96010000       1.70650000      -0.07860000
H       -0.72620000       1.87490000      -0.26370000
H       -2.14880000      -0.36290000       0.04140000
H       -1.04470000      -4.30200000      -0.04460000
H        2.13400000      -2.73790000      -0.01460000
H        3.20640000      -0.50600000      -0.04010000
