18
Properties=species:S:1:pos:R:3 gdb_94643=T pbc="F F F"
O        0.81110000       0.15110000      -0.76740000
C        0.02600000      -0.39880000       0.24600000
C       -0.44900000       0.46110000       1.45370000
C       -1.80760000      -0.29210000       1.38610000
C       -1.46670000      -0.70860000      -0.06950000
O       -1.88110000       0.25060000      -1.04470000
C       -3.11550000       0.00280000      -1.66080000
C       -4.28460000       0.28090000      -0.80060000
N       -5.20400000       0.49890000      -0.13590000
H        0.23710000       0.74650000      -1.26490000
H        0.53080000      -1.30560000       0.59320000
H        0.13090000       0.40440000       2.37660000
H       -0.55810000       1.50890000       1.16200000
H       -1.83920000      -1.16440000       2.04450000
H       -2.71870000       0.28900000       1.52680000
H       -1.73530000      -1.71650000      -0.41000000
H       -3.17300000       0.65690000      -2.53660000
H       -3.18920000      -1.03740000      -2.01230000
