15
Properties=species:S:1:pos:R:3 gdb_123709=T pbc="F F F"
C        0.01280000       1.49810000       0.08870000
C        1.30180000       0.73530000       0.04070000
O        1.97230000       0.43660000       1.26540000
C        1.13900000      -0.40070000       1.93440000
N        1.26670000      -0.94570000       3.12320000
N        0.12730000      -1.69980000       3.19570000
C       -0.67440000      -1.61170000       2.09330000
C       -0.03260000      -0.75010000       1.23630000
C       -0.02720000      -0.02390000      -0.04970000
H       -0.30330000       1.93230000       1.03060000
H       -0.23080000       2.08140000      -0.79310000
H        1.99800000       0.85190000      -0.77970000
H       -0.02280000      -2.25660000       4.01790000
H       -1.60150000      -2.15930000       2.03160000
H       -0.37640000      -0.47020000      -0.97300000
