23
Properties=species:S:1:pos:R:3 gdb_41627=T pbc="F F F"
C        0.41170000       1.48760000      -0.63080000
C        1.53960000       1.57870000       0.43260000
C        1.40720000       0.04880000       0.67600000
C        0.02870000       0.08560000      -0.06410000
C       -0.06770000      -1.13470000      -0.99040000
C        1.37240000      -1.64850000      -1.18880000
C        2.22000000      -1.04630000      -2.34810000
C        3.17870000      -0.39170000      -1.31540000
C        2.29630000      -0.92240000      -0.14170000
H       -0.36260000       2.25860000      -0.60170000
H        0.79870000       1.43710000      -1.65230000
H        2.51100000       1.96700000       0.11640000
H        1.22130000       2.14490000       1.31240000
H        1.39240000      -0.25290000       1.72650000
H       -0.82910000       0.15970000       0.60970000
H       -0.67500000      -1.91030000      -0.50930000
H       -0.55620000      -0.90000000      -1.94370000
H        1.41170000      -2.74010000      -1.16170000
H        2.68680000      -1.78480000      -3.00490000
H        1.67530000      -0.33890000      -2.98000000
H        4.18530000      -0.81720000      -1.31830000
H        3.28130000       0.69300000      -1.38970000
H        2.84690000      -1.58370000       0.53090000
