19
Properties=species:S:1:pos:R:3 gdb_116113=T pbc="F F F"
O       -0.00910000       1.41010000       0.02580000
C        0.02440000       0.00320000       0.09530000
C       -1.35480000      -0.61290000      -0.11800000
C       -1.37360000      -2.13310000      -0.08200000
C       -2.82070000      -2.62610000      -0.08580000
C       -3.54620000      -2.06400000       1.13930000
C       -3.30670000      -0.58660000       1.41760000
O       -4.02530000       0.07050000       2.11890000
O       -2.18610000      -0.01150000       0.90870000
H       -0.68720000       1.69790000       0.64880000
H        0.70000000      -0.34170000      -0.69480000
H        0.42330000      -0.35110000       1.06020000
H       -1.74880000      -0.25790000      -1.08010000
H       -0.82220000      -2.50970000      -0.94970000
H       -0.85420000      -2.49230000       0.81610000
H       -3.31770000      -2.29180000      -1.00490000
H       -2.86740000      -3.71920000      -0.08180000
H       -4.62800000      -2.20710000       1.09300000
H       -3.20720000      -2.58730000       2.04350000
