19
Properties=species:S:1:pos:R:3 gdb_61893=T pbc="F F F"
C        0.02210000       1.43290000       0.07810000
C        0.04590000      -0.06620000      -0.10170000
O        1.07120000      -0.68070000      -0.31030000
C       -1.27180000      -0.84400000      -0.01610000
O       -1.03190000      -2.20390000      -0.25720000
C       -1.96210000      -0.64230000       1.34570000
C       -3.25830000      -1.47090000       1.44300000
C       -3.92790000      -1.31190000       2.72720000
C       -4.45910000      -1.16090000       3.79490000
H        0.94860000       1.86360000      -0.30390000
H       -0.84110000       1.88300000      -0.42080000
H       -0.05970000       1.67090000       1.14500000
H       -1.93440000      -0.43730000      -0.80210000
H       -0.07000000      -2.27190000      -0.38050000
H       -1.27770000      -0.94920000       2.14450000
H       -2.19430000       0.41700000       1.49750000
H       -3.94010000      -1.17760000       0.63350000
H       -3.01190000      -2.52380000       1.27100000
H       -4.93960000      -1.04120000       4.73400000
