22
Properties=species:S:1:pos:R:3 gdb_76788=T pbc="F F F"
C       -0.26470000       1.43600000       0.17920000
C       -0.06510000      -0.06530000       0.00480000
C        0.77730000      -0.51770000      -1.24490000
C        0.88910000       0.37640000      -2.47220000
C        1.98160000      -0.66870000      -0.30530000
C        3.33940000      -1.20690000      -0.49360000
N        3.13230000       0.24110000      -0.25280000
C        1.06690000      -0.65910000       0.92480000
O        1.52350000       0.07980000       2.01990000
H        0.67530000       1.99030000       0.09570000
H       -0.95850000       1.83490000      -0.56800000
H       -0.67180000       1.64650000       1.17200000
H       -1.02770000      -0.57720000       0.09510000
H        0.44670000      -1.51480000      -1.55910000
H        1.19620000       1.39480000      -2.21440000
H        1.61560000      -0.02480000      -3.18870000
H       -0.07220000       0.44650000      -2.99120000
H        3.83640000      -1.73600000       0.31540000
H        3.63860000      -1.51910000      -1.49170000
H        3.22920000       0.76310000      -1.12030000
H        0.80970000      -1.66880000       1.26600000
H        2.26660000       0.60360000       1.68080000
