21
Properties=species:S:1:pos:R:3 gdb_80910=T pbc="F F F"
C       -0.14270000       1.53440000       0.77270000
C       -0.12840000       0.04540000       0.47270000
C        1.03320000      -0.52870000      -0.37210000
O        1.95470000      -0.27580000       0.77100000
C        0.72210000      -0.88880000       1.38090000
C        0.70790000      -1.09310000       2.86210000
C        0.80000000      -1.95680000       0.22380000
C       -0.36870000      -2.83870000      -0.16630000
O        1.93410000      -2.77390000       0.26670000
H        0.86010000       1.89030000       1.01550000
H       -0.51420000       2.09960000      -0.08870000
H       -0.80550000       1.75440000       1.61680000
H       -1.12580000      -0.32290000       0.22220000
H        1.38870000      -0.23340000      -1.36090000
H        0.86900000      -0.14900000       3.39130000
H       -0.25680000      -1.50530000       3.17500000
H        1.49280000      -1.79770000       3.15390000
H       -1.31570000      -2.30290000      -0.23510000
H       -0.16220000      -3.30420000      -1.13460000
H       -0.47660000      -3.64370000       0.56700000
H        2.65540000      -2.16990000       0.50070000
