15
Properties=species:S:1:pos:R:3 gdb_44125=T pbc="F F F"
O        0.00900000      -0.02750000      -0.04660000
C       -0.03800000       1.17410000       0.02180000
C       -1.29660000       2.06180000       0.06620000
C       -0.77650000       3.48690000       0.03050000
C        0.72340000       3.40760000       0.03940000
N        1.05420000       2.02540000       0.06090000
C        0.00400000       3.96460000      -1.19790000
C       -0.01820000       3.22750000      -2.42650000
N       -0.03640000       2.62600000      -3.41470000
H       -1.94260000       1.79860000      -0.77540000
H       -1.85360000       1.86130000       0.98570000
H       -1.29000000       4.25660000       0.59210000
H        1.34880000       4.08040000       0.61440000
H        1.96990000       1.67320000      -0.17160000
H        0.05030000       5.04180000      -1.32210000
