19
Properties=species:S:1:pos:R:3 gdb_93626=T pbc="F F F"
C       -0.79560000       1.26050000      -0.17600000
C       -0.06050000      -0.07400000      -0.11950000
C        1.12970000      -0.22540000      -1.08010000
O        1.87100000       0.98370000      -1.06380000
C        1.89000000      -1.40700000      -0.45790000
O        1.53730000      -1.47420000       0.92330000
C        0.58350000      -0.45500000       1.23950000
C        1.20510000       0.65730000       1.96540000
C        1.68920000       1.54490000       2.61530000
H       -0.11430000       2.08800000       0.02460000
H       -1.23960000       1.41130000      -1.16500000
H       -1.60370000       1.28940000       0.56170000
H       -0.75780000      -0.88710000      -0.35550000
H        0.79580000      -0.46060000      -2.10130000
H        2.70910000       0.83300000      -1.51110000
H        1.61490000      -2.35500000      -0.94020000
H        2.97620000      -1.27730000      -0.55700000
H       -0.16410000      -0.91310000       1.89850000
H        2.12960000       2.33470000       3.17200000
