23
Properties=species:S:1:pos:R:3 gdb_95073=T pbc="F F F"
C       -0.10850000       1.51090000       0.09860000
C        0.00260000      -0.00180000       0.01660000
C        1.10460000      -0.64150000      -0.88680000
C        1.16840000      -1.79600000       0.15560000
C        0.67160000      -0.76670000       1.20090000
C        0.06150000      -2.83090000      -0.09810000
C       -1.18850000      -2.15020000      -0.70820000
C       -1.35870000      -0.66370000      -0.30220000
O       -2.29460000      -0.47480000       0.75700000
H        0.84250000       1.96330000       0.39900000
H       -0.39100000       1.93740000      -0.87140000
H       -0.87520000       1.80050000       0.82400000
H        0.85880000      -0.87790000      -1.92630000
H        2.01700000      -0.03830000      -0.86910000
H        2.13550000      -2.27230000       0.33330000
H        1.48960000      -0.18050000       1.63010000
H        0.04820000      -1.13510000       2.02520000
H        0.41420000      -3.61560000      -0.77670000
H       -0.18000000      -3.33100000       0.84850000
H       -1.10680000      -2.19170000      -1.79910000
H       -2.10750000      -2.68600000      -0.45390000
H       -1.81450000      -0.12730000      -1.14300000
H       -1.94340000      -0.90200000       1.54530000
