22
Properties=species:S:1:pos:R:3 gdb_112427=T pbc="F F F"
C       -0.36800000       1.50640000       0.15410000
C       -0.32580000      -0.02410000       0.20150000
C        0.78190000      -0.56950000       1.11880000
N        0.61900000      -0.15790000       2.50820000
C        0.08160000      -1.10250000       3.34450000
O       -0.22660000      -0.93250000       4.50350000
C       -0.04890000      -2.38270000       2.51570000
C        0.82200000      -2.12330000       1.27400000
C        0.44910000      -2.93550000       0.03640000
H        0.59140000       1.92020000      -0.17780000
H       -1.13780000       1.85740000      -0.53920000
H       -0.59620000       1.93270000       1.13650000
H       -1.29820000      -0.40890000       0.53340000
H       -0.16120000      -0.41170000      -0.81040000
H        1.74670000      -0.20900000       0.73770000
H        0.69860000       0.79770000       2.81800000
H        0.25420000      -3.25350000       3.10010000
H       -1.10600000      -2.51800000       2.25450000
H        1.85560000      -2.36960000       1.54600000
H       -0.59090000      -2.77070000      -0.26220000
H        1.08910000      -2.68690000      -0.81730000
H        0.56790000      -4.00510000       0.23610000
