17
Properties=species:S:1:pos:R:3 gdb_9750=T pbc="F F F"
C        0.04890000       1.40890000      -0.09840000
O       -0.00850000      -0.00540000       0.01680000
C       -1.27900000      -0.58760000       0.03750000
C       -2.12740000      -0.27470000      -1.18770000
C       -1.07600000      -2.09150000       0.35380000
N       -1.52470000      -2.27310000       1.74080000
C       -1.99640000      -1.15190000       2.09110000
O       -2.00530000      -0.11570000       1.21480000
H        1.08960000       1.68680000       0.08010000
H       -0.23860000       1.75440000      -1.09970000
H       -0.58620000       1.89700000       0.64880000
H       -1.59220000      -0.57320000      -2.09370000
H       -3.06950000      -0.82510000      -1.13710000
H       -2.36330000       0.79000000      -1.25170000
H       -1.65600000      -2.73860000      -0.31230000
H       -0.01920000      -2.35010000       0.25090000
H       -2.42670000      -0.92480000       3.06050000
