19
Properties=species:S:1:pos:R:3 gdb_107925=T pbc="F F F"
C        0.19790000       1.23870000       0.16080000
O       -0.09920000      -0.10490000      -0.18710000
C        0.58450000      -0.54900000      -1.29040000
C        0.30750000      -0.21720000      -2.75800000
C        1.19090000      -1.46000000      -3.06150000
C        0.91880000      -1.97690000      -1.58530000
C        2.04960000      -1.02700000      -1.18750000
C        2.62060000      -1.04410000      -2.60270000
O        3.61830000      -2.01680000      -2.82080000
H        1.26670000       1.36850000       0.37930000
H       -0.08320000       1.93550000      -0.64070000
H       -0.38500000       1.47210000       1.05410000
H       -0.74410000      -0.38940000      -3.00470000
H        0.63590000       0.74520000      -3.16790000
H        1.06240000      -2.03480000      -3.97600000
H        0.55300000      -2.89850000      -1.15750000
H        2.57600000      -0.98290000      -0.24170000
H        3.02060000      -0.11450000      -3.02210000
H        3.34330000      -2.81970000      -2.36150000
