14
Properties=species:S:1:pos:R:3 gdb_125055=T pbc="F F F"
C       -0.16250000       1.90010000       0.04460000
C       -0.03240000       0.40410000       0.24490000
C       -1.15890000      -0.55490000       0.28790000
N       -2.40330000       0.00110000       0.12290000
O       -1.00330000      -1.74990000       0.48930000
N        0.85910000      -4.39080000      -0.69500000
N        1.03680000      -3.41170000      -1.16030000
C        1.16100000      -0.14670000       0.41820000
O        2.21530000      -0.59900000       0.56590000
H        0.80900000       2.39640000       0.10320000
H       -0.58620000       2.13870000      -0.93900000
H       -0.80490000       2.34460000       0.81290000
H       -2.52170000       0.91800000      -0.27230000
H       -3.16140000      -0.65290000       0.00980000
