17
Properties=species:S:1:pos:R:3 gdb_62372=T pbc="F F F"
C       -0.10590000       1.50220000      -0.01240000
C       -0.04450000      -0.02810000      -0.00870000
C       -1.33890000      -0.59670000      -0.34620000
C       -2.43270000      -1.00820000      -0.63090000
C        1.26670000      -0.62830000      -0.67830000
O        1.99370000      -0.19990000       0.51440000
C        0.78300000      -0.64320000       1.20160000
C        0.77230000      -2.14320000       0.87380000
C        1.10480000      -2.13300000      -0.41860000
H        0.86900000       1.92030000       0.24170000
H       -0.40920000       1.86750000      -0.99830000
H       -0.84870000       1.85400000       0.71010000
H       -3.39190000      -1.38910000      -0.88090000
H        1.66990000      -0.25860000      -1.62030000
H        0.68020000      -0.28900000       2.22660000
H        0.52480000      -2.95570000       1.53960000
H        1.21250000      -2.93470000      -1.13310000
