21
Properties=species:S:1:pos:R:3 gdb_72735=T pbc="F F F"
C       -0.07630000       1.54580000      -0.01340000
C        0.08780000       0.04980000       0.06030000
C        0.95900000      -0.70500000      -0.98170000
C        1.62590000      -1.48110000       0.18440000
C        2.84150000      -0.77890000       0.87410000
C        1.92620000      -0.32840000       2.05950000
C        0.71710000      -0.76500000       1.23700000
C       -0.69970000      -1.22020000       1.53700000
O       -1.17730000      -0.63350000       0.29980000
H        0.89450000       2.04390000      -0.10720000
H       -0.67890000       1.81420000      -0.88890000
H       -0.58370000       1.93130000       0.87640000
H        0.35200000      -1.31270000      -1.65730000
H        1.63920000      -0.08360000      -1.57400000
H        1.69210000      -2.56850000       0.11480000
H        3.66470000      -1.44080000       1.15030000
H        3.25260000       0.04950000       0.29000000
H        2.07350000      -0.95330000       2.94640000
H        1.97060000       0.72010000       2.37020000
H       -0.88110000      -2.30130000       1.58380000
H       -1.16590000      -0.74320000       2.41180000
