14
Properties=species:S:1:pos:R:3 gdb_48294=T pbc="F F F"
O       -0.21700000       0.01700000      -0.17470000
C       -0.07630000       1.19740000      -0.03820000
C        1.31590000       1.87640000      -0.04850000
N        1.35540000       2.72260000      -1.24110000
C        2.57750000       3.52200000      -1.37440000
C        2.54740000       4.28440000      -2.62320000
N        2.53480000       4.86580000      -3.62060000
C        1.45560000       2.68630000       1.16700000
N        1.55330000       3.30800000       2.13590000
H       -0.91840000       1.90970000       0.06060000
H        2.07560000       1.07860000      -0.02330000
H        1.24280000       2.13190000      -2.05940000
H        2.63380000       4.22310000      -0.53440000
H        3.50420000       2.92370000      -1.35720000
