22
Properties=species:S:1:pos:R:3 gdb_102311=T pbc="F F F"
C        0.19060000       1.41830000       0.24690000
N        0.04920000      -0.00340000      -0.03670000
C       -1.32220000      -0.48600000      -0.02220000
C       -1.37290000      -1.89500000      -0.65840000
N       -0.87550000      -1.86950000      -2.02860000
C       -0.34210000      -3.16000000      -2.44730000
C       -1.86100000      -1.37250000      -2.98070000
C       -1.83530000      -0.55420000       1.35740000
N       -2.25730000      -0.60890000       2.43150000
H        1.24110000       1.70200000       0.14210000
H       -0.41220000       2.06960000      -0.41140000
H       -0.10810000       1.62130000       1.28050000
H        0.41620000      -0.23370000      -0.95570000
H       -2.01570000       0.18170000      -0.56980000
H       -0.72160000      -2.54190000      -0.06510000
H       -2.39930000      -2.29320000      -0.58350000
H       -1.10960000      -3.95480000      -2.48720000
H        0.09550000      -3.06680000      -3.44600000
H        0.44510000      -3.47880000      -1.75860000
H       -2.20520000      -0.37480000      -2.69560000
H       -1.40620000      -1.29590000      -3.97260000
H       -2.74720000      -2.02950000      -3.05840000
