19
Properties=species:S:1:pos:R:3 gdb_52628=T pbc="F F F"
C        0.00780000       1.48660000       0.03760000
C       -0.00660000       0.03120000       0.00850000
C       -0.03200000      -1.17300000      -0.01750000
C       -0.01760000      -2.64040000      -0.05800000
C       -1.42810000      -3.20850000       0.15310000
O        0.39650000      -3.10250000      -1.35240000
C        0.96600000      -3.17210000       1.02280000
C        1.09000000      -4.68230000       1.02290000
O        1.07680000      -5.36120000       2.01870000
H        0.89280000       1.86750000       0.55850000
H        0.01240000       1.90170000      -0.97610000
H       -0.87630000       1.87900000       0.55180000
H       -2.10350000      -2.81210000      -0.60730000
H       -1.40760000      -4.29880000       0.06660000
H       -1.80670000      -2.94050000       1.14220000
H        1.12160000      -2.53910000      -1.64370000
H        1.96060000      -2.75890000       0.80420000
H        0.67750000      -2.83520000       2.02180000
H        1.21430000      -5.13300000       0.01590000
