19
Properties=species:S:1:pos:R:3 gdb_102132=T pbc="F F F"
C       -0.00840000       1.45590000      -0.01260000
C       -0.01610000      -0.00010000      -0.00030000
C       -0.01650000      -1.20440000       0.02630000
C       -0.05230000      -2.66410000       0.02220000
C       -1.51520000      -3.17110000      -0.07500000
O       -1.66570000      -4.52020000       0.30210000
C        0.84620000      -3.19540000      -1.13560000
C        0.93900000      -4.64960000      -1.22600000
C        1.02470000      -5.84710000      -1.31340000
H        0.86370000       1.84490000      -0.54970000
H       -0.90360000       1.85480000      -0.50230000
H        0.02110000       1.86150000       1.00470000
H        0.34800000      -3.04630000       0.96980000
H       -2.13080000      -2.58780000       0.61530000
H       -1.89200000      -2.97660000      -1.09290000
H       -1.11860000      -5.05800000      -0.28310000
H        0.46070000      -2.79480000      -2.08130000
H        1.85250000      -2.77960000      -1.01440000
H        1.11570000      -6.90270000      -1.38960000
