16
Properties=species:S:1:pos:R:3 gdb_28123=T pbc="F F F"
N        0.15120000       1.39450000       0.10470000
C        0.00060000      -0.00300000       0.01470000
C       -1.12780000      -0.80010000      -0.02140000
C       -0.63720000      -2.13920000      -0.00640000
C        0.75430000      -2.11780000       0.02370000
N        1.14170000      -0.78800000       0.01690000
C        1.24100000      -3.45080000      -0.00180000
C        0.11500000      -4.25000000      -0.03880000
N       -1.02190000      -3.45820000      -0.04360000
H        0.50140000       1.80280000      -0.75790000
H       -0.73410000       1.83580000       0.31970000
H       -2.14490000      -0.44560000      -0.08290000
H        2.04490000      -0.42570000       0.26690000
H        2.26070000      -3.80170000       0.01840000
H        0.03110000      -5.32480000      -0.05070000
H       -1.96220000      -3.80530000      -0.08940000
