18
Properties=species:S:1:pos:R:3 gdb_87328=T pbc="F F F"
C        0.18570000       1.45470000       0.02220000
C        0.16510000      -0.05590000       0.03280000
C        1.43040000      -0.85380000       0.09260000
C        0.51460000      -0.84650000       1.30470000
N        0.95430000      -0.10200000       2.45520000
C        2.15740000      -0.27950000       3.08360000
O        3.06780000      -0.97330000       2.69490000
C       -0.26700000      -2.02070000       1.59870000
C       -0.94050000      -2.98480000       1.85140000
H        0.99100000       1.84590000       0.64890000
H        0.34380000       1.82430000      -0.99640000
H       -0.76110000       1.87200000       0.38290000
H       -0.64710000      -0.50500000      -0.53080000
H        1.49920000      -1.78470000      -0.45630000
H        2.36870000      -0.32740000       0.21440000
H        0.25100000       0.41570000       2.96170000
H        2.21240000       0.33220000       4.00760000
H       -1.51910000      -3.84600000       2.07740000
