25
Properties=species:S:1:pos:R:3 gdb_59757=T pbc="F F F"
C        0.58890000      -0.12810000      -1.53950000
C        0.04560000       0.07630000      -0.11550000
C        0.14740000       1.55470000       0.29050000
C       -1.39270000      -0.45400000       0.10690000
C       -2.43180000       0.03910000      -0.93400000
C       -2.62610000      -1.17210000      -1.88500000
O       -1.78270000      -2.21410000      -1.40900000
C       -1.57400000      -1.98660000      -0.01740000
C       -0.46330000      -2.89810000       0.47670000
H        1.64040000       0.17420000      -1.59130000
H        0.50950000      -1.16730000      -1.86440000
H        0.04280000       0.48520000      -2.26550000
H        0.69540000      -0.48460000       0.56940000
H       -0.48410000       2.19040000      -0.34100000
H       -0.16210000       1.70760000       1.33010000
H        1.17630000       1.91610000       0.19030000
H       -1.69490000      -0.14480000       1.11420000
H       -3.37500000       0.29800000      -0.44580000
H       -2.09540000       0.93010000      -1.46860000
H       -3.67490000      -1.50510000      -1.88590000
H       -2.33940000      -0.95850000      -2.91910000
H       -2.49980000      -2.24800000       0.52910000
H        0.47600000      -2.71890000      -0.05130000
H       -0.29510000      -2.74760000       1.54780000
H       -0.74470000      -3.94320000       0.32010000
