18
Properties=species:S:1:pos:R:3 gdb_16597=T pbc="F F F"
C       -0.02130000       1.52970000       0.00940000
C        0.11240000       0.02020000       0.07360000
C        1.37340000      -0.76460000      -0.17160000
C        0.70360000      -0.76720000       1.21260000
C        1.91830000      -0.04640000       1.82450000
O        2.64150000      -0.78920000       2.76990000
C        2.60160000      -0.05660000       0.39370000
O        3.70800000      -0.94510000       0.35950000
H        0.84610000       2.05270000       0.41990000
H       -0.14340000       1.86220000      -1.02720000
H       -0.90020000       1.86350000       0.57150000
H       -0.75030000      -0.49080000      -0.35130000
H        1.43780000      -1.54990000      -0.91560000
H        0.16240000      -1.56030000       1.71570000
H        1.72280000       0.93130000       2.27590000
H        3.08320000      -1.48960000       2.26800000
H        2.87400000       0.91140000      -0.04760000
H        4.46200000      -0.48600000       0.74600000
