18
Properties=species:S:1:pos:R:3 gdb_12828=T pbc="F F F"
O       -0.04910000       1.37570000       0.10960000
C        0.02610000      -0.02210000      -0.01700000
C       -0.53140000      -0.61190000      -1.29450000
C       -1.31060000      -0.70480000       0.00430000
O       -1.46390000      -1.96540000       0.58860000
C       -0.51860000      -2.27080000       1.60540000
C        0.91270000      -2.12880000       1.09170000
C        1.18770000      -0.66120000       0.72560000
H        0.62260000       1.75880000      -0.46610000
H       -0.88260000       0.08560000      -2.04700000
H       -0.10860000      -1.53700000      -1.67180000
H       -2.18340000      -0.06630000       0.11560000
H       -0.67000000      -1.62010000       2.48230000
H       -0.73610000      -3.29960000       1.90570000
H        1.62290000      -2.46420000       1.85510000
H        1.04000000      -2.78460000       0.22240000
H        2.11930000      -0.56460000       0.15350000
H        1.31790000      -0.08150000       1.64740000
