19
Properties=species:S:1:pos:R:3 gdb_105991=T pbc="F F F"
C        0.07590000       1.44580000       0.26130000
C       -0.06140000      -0.02290000      -0.16290000
C       -1.46880000      -0.52580000      -0.12400000
C       -2.76090000      -0.11070000      -0.90280000
C       -3.61800000      -0.50280000       0.28980000
C       -3.30200000      -1.52990000      -0.78870000
C       -2.00550000      -1.93320000       0.00300000
O       -1.26900000      -3.08680000       0.05400000
C       -2.34700000      -0.91160000       1.08680000
H        1.11800000       1.77570000       0.20640000
H       -0.51640000       2.10070000      -0.38650000
H       -0.27420000       1.59150000       1.28820000
H        0.34260000      -0.15140000      -1.17660000
H        0.55120000      -0.65930000       0.48780000
H       -2.93700000       0.62640000      -1.67640000
H       -4.58030000      -0.12260000       0.60760000
H       -3.96910000      -2.06520000      -1.45180000
H       -1.72330000      -3.71630000       0.62650000
H       -2.09350000      -0.89270000       2.13900000
