19
Properties=species:S:1:pos:R:3 gdb_89732=T pbc="F F F"
C       -0.08700000       1.53290000      -0.03730000
C       -0.01470000       0.00820000      -0.01320000
O       -1.28440000      -0.57980000      -0.15590000
C        1.13450000      -0.56850000      -0.90110000
O        1.53370000       0.26890000      -1.95910000
C        2.03820000      -0.68820000       0.36570000
C        0.76470000      -0.53820000       1.20140000
C        0.53590000      -0.37040000       2.63440000
O        0.26620000      -1.61480000       1.97310000
H        0.88750000       1.99110000       0.14890000
H       -0.42220000       1.88130000      -1.02020000
H       -0.79130000       1.87940000       0.72460000
H       -1.75250000      -0.11010000      -0.85460000
H        0.83160000      -1.56300000      -1.25370000
H        2.22180000      -0.17860000      -2.46090000
H        2.58930000      -1.62000000       0.50570000
H        2.71690000       0.16450000       0.46000000
H        1.38040000      -0.37800000       3.32290000
H       -0.34490000       0.16750000       2.98340000
