17
Properties=species:S:1:pos:R:3 gdb_66002=T pbc="F F F"
N        0.24400000       1.54030000      -0.76750000
C       -0.01440000       0.20540000      -0.28150000
C        0.88970000      -0.99530000      -0.71230000
O        1.32520000      -1.16970000       0.67440000
C        0.59910000      -0.09320000       1.10580000
O        0.52920000       0.35290000       2.20640000
C       -1.50190000      -0.08050000      -0.35340000
C       -2.21070000      -0.87750000       0.68070000
N       -2.42620000       0.57430000       0.57300000
H        1.23510000       1.72510000      -0.87960000
H       -0.21300000       1.70160000      -1.65890000
H        0.38680000      -1.89450000      -1.07390000
H        1.73620000      -0.73500000      -1.35270000
H       -1.86950000      -0.12970000      -1.37970000
H       -3.05850000      -1.49150000       0.39080000
H       -1.64600000      -1.25680000       1.52730000
H       -1.89340000       1.05570000       1.29560000
