18
Properties=species:S:1:pos:R:3 gdb_25894=T pbc="F F F"
C       -0.04570000       1.49990000      -0.02610000
C        0.02810000      -0.02330000      -0.01830000
O        1.10790000      -0.58920000      -0.03300000
C       -1.23700000      -0.76490000       0.00710000
C       -2.51260000      -0.21920000       0.02510000
N       -3.40550000      -1.24170000       0.04580000
C       -2.73470000      -2.44880000       0.04190000
C       -1.38680000      -2.19900000       0.01800000
C       -0.29590000      -3.22430000       0.00600000
H        0.96750000       1.90260000      -0.04460000
H       -0.59570000       1.85920000      -0.90260000
H       -0.56770000       1.86970000       0.86310000
H       -2.83990000       0.80800000       0.02450000
H       -4.40510000      -1.13620000       0.06170000
H       -3.27500000      -3.38210000       0.05630000
H        0.33910000      -3.12060000      -0.87860000
H        0.36780000      -3.11060000       0.86800000
H       -0.71570000      -4.23490000       0.01860000
