17
Properties=species:S:1:pos:R:3 gdb_91668=T pbc="F F F"
O       -0.06660000       1.41190000      -0.03540000
C       -0.03130000       0.00620000       0.03780000
C        0.46630000      -0.60550000       1.39910000
C       -0.81270000      -1.38280000       1.76040000
O       -1.15850000      -2.01210000       0.47950000
C       -1.43640000      -0.65200000       0.02630000
C       -1.91330000      -0.36690000       1.45190000
C       -3.20820000      -0.06170000       2.02890000
O       -2.11520000       0.89350000       2.06030000
H       -0.66620000       1.73200000       0.65090000
H        0.57250000      -0.33210000      -0.80610000
H        1.32000000      -1.27530000       1.28210000
H        0.71710000       0.17850000       2.11860000
H       -0.82470000      -2.05800000       2.61460000
H       -2.05590000      -0.57610000      -0.86540000
H       -4.04110000       0.21160000       1.38410000
H       -3.48110000      -0.46680000       3.00110000
