18
Properties=species:S:1:pos:R:3 gdb_121439=T pbc="F F F"
C        0.44290000       0.41340000      -0.69140000
O       -0.32430000      -0.53550000      -1.43680000
C       -1.64200000      -0.71360000      -1.11820000
N       -2.54170000       0.15520000      -0.91530000
C       -2.34300000       1.58290000      -1.10750000
C       -3.72330000       2.20520000      -1.34710000
O       -4.60490000       1.89800000      -0.29160000
C       -1.97490000      -2.11040000      -1.06780000
C       -2.24080000      -3.28220000      -1.03470000
H        1.47960000       0.07780000      -0.75800000
H        0.36500000       1.42280000      -1.10400000
H        0.13440000       0.42640000       0.35870000
H       -1.91520000       2.02910000      -0.20010000
H       -1.67160000       1.80370000      -1.94870000
H       -3.63750000       3.29600000      -1.39770000
H       -4.11110000       1.85220000      -2.31660000
H       -4.51820000       0.94320000      -0.16460000
H       -2.48580000      -4.31540000      -1.00230000
