15
Properties=species:S:1:pos:R:3 gdb_44193=T pbc="F F F"
O       -0.58190000       0.29660000       0.63770000
C       -0.18710000       1.29590000       0.13400000
O       -0.93710000       2.26940000      -0.50360000
C        0.25110000       3.05200000      -0.81810000
C        0.53050000       4.12830000       0.27760000
C        1.43700000       3.07910000       1.02510000
C        1.13780000       2.02210000      -0.08220000
C        1.21290000       5.31820000      -0.18510000
C        1.79700000       6.28650000      -0.59340000
H        0.29990000       3.32110000      -1.87060000
H       -0.38600000       4.38830000       0.81430000
H        2.48380000       3.38130000       1.03440000
H        1.13060000       2.81200000       2.03730000
H        1.96110000       1.45770000      -0.51310000
H        2.30180000       7.15280000      -0.94360000
