21
Properties=species:S:1:pos:R:3 gdb_119098=T pbc="F F F"
O       -3.10690000       0.89540000       2.00480000
C       -2.62800000      -0.42160000       1.78220000
C       -1.79060000      -0.52320000       0.50320000
C       -1.39650000      -1.94200000       0.10700000
C       -0.41170000      -2.60230000       1.07550000
O        0.81560000      -1.90240000       1.08390000
C       -2.51330000      -2.87800000      -0.41760000
C       -1.69330000      -2.90690000      -1.72090000
O       -0.75450000      -1.93260000      -1.21080000
H       -2.34170000       1.46850000       2.11810000
H       -2.05720000      -0.78450000       2.65020000
H       -3.52430000      -1.04770000       1.70320000
H       -2.35780000      -0.07570000      -0.31960000
H       -0.86880000       0.05950000       0.62210000
H       -0.79570000      -2.59880000       2.10130000
H       -0.27190000      -3.65410000       0.77740000
H        1.07240000      -1.83080000       0.15490000
H       -2.62350000      -3.82920000       0.10710000
H       -3.49100000      -2.40170000      -0.50840000
H       -1.20810000      -3.86420000      -1.94720000
H       -2.19890000      -2.54580000      -2.62300000
