19
Properties=species:S:1:pos:R:3 gdb_126371=T pbc="F F F"
C       -0.02870000       1.51480000       0.10830000
C       -0.02120000      -0.01850000      -0.02910000
C        0.67550000      -0.48900000      -1.26660000
N        0.07600000      -0.71310000      -2.42990000
C        1.10790000      -1.07540000      -3.24130000
N        0.91810000      -1.34480000      -4.58360000
N        2.30130000      -1.09950000      -2.66460000
N        2.00170000      -0.71070000      -1.38460000
C        3.06920000      -0.59040000      -0.42030000
H        0.98710000       1.91400000       0.19130000
H       -0.49920000       1.97310000      -0.76570000
H       -0.58570000       1.81870000       0.99950000
H        0.42990000      -0.47200000       0.86040000
H       -1.04910000      -0.38620000      -0.08640000
H       -0.01230000      -1.67980000      -4.78640000
H        1.63960000      -1.92630000      -4.98450000
H        3.76520000       0.20050000      -0.71640000
H        2.65110000      -0.34970000       0.55760000
H        3.62000000      -1.53270000      -0.35520000
