22
Properties=species:S:1:pos:R:3 gdb_105094=T pbc="F F F"
C       -1.50980000      -0.65790000       2.57740000
O       -1.02430000      -1.72570000       1.79600000
C        0.13670000      -1.52390000       1.02770000
C        0.68280000      -0.14700000       0.72470000
C        1.41990000      -1.06760000       1.67950000
C        0.26620000      -2.56420000      -0.05330000
C       -0.58790000      -3.78440000      -0.08640000
N       -0.70540000      -2.76970000      -1.12920000
C       -1.92400000      -1.97050000      -1.17750000
H       -0.76510000      -0.28490000       3.29470000
H       -1.85880000       0.18220000       1.96200000
H       -2.35780000      -1.05390000       3.14110000
H        1.09430000       0.02110000      -0.26470000
H        0.19840000       0.72220000       1.15270000
H        1.38600000      -0.81250000       2.73300000
H        2.35090000      -1.52550000       1.36430000
H        1.29390000      -2.64940000      -0.40410000
H       -0.17230000      -4.74130000      -0.39390000
H       -1.37480000      -3.83930000       0.66140000
H       -2.38170000      -1.78580000      -0.19760000
H       -1.70170000      -1.00590000      -1.64620000
H       -2.65110000      -2.48910000      -1.81110000
