18
Properties=species:S:1:pos:R:3 gdb_19362=T pbc="F F F"
C        0.18370000       1.53530000       0.07270000
C       -0.04560000       0.02820000      -0.10060000
C       -1.48610000      -0.36770000      -0.01710000
O       -1.89690000      -1.60680000      -0.62170000
C       -2.58510000      -0.39570000      -0.98110000
C       -3.62560000      -0.04710000       0.12820000
C       -3.59150000      -1.05200000       1.24810000
C       -2.49120000      -0.02910000       1.14380000
H        1.24810000       1.77420000      -0.00590000
H       -0.34860000       2.10610000      -0.69480000
H       -0.16240000       1.88580000       1.05020000
H        0.33700000      -0.30680000      -1.07090000
H        0.51800000      -0.52240000       0.66490000
H       -2.63740000      -0.14710000      -2.03480000
H       -4.41910000       0.67630000      -0.00270000
H       -4.30570000      -0.86720000       2.04440000
H       -3.38950000      -2.09450000       1.03830000
H       -2.29610000       0.70950000       1.90990000
