19
Properties=species:S:1:pos:R:3 gdb_53500=T pbc="F F F"
C        0.19380000       1.53160000      -0.39220000
C        0.07990000       0.09340000      -0.19590000
C       -0.00750000      -1.09360000      -0.01300000
C       -0.10830000      -2.53890000       0.18830000
N       -1.48350000      -3.03280000       0.17180000
C       -2.27320000      -2.82560000      -1.02650000
C       -1.93140000      -3.72630000       1.27480000
N       -3.21660000      -4.25080000       1.16480000
O       -1.28150000      -3.84500000       2.30130000
H        0.91910000       1.96860000       0.30290000
H        0.51950000       1.77510000      -1.40950000
H       -0.76660000       2.03040000      -0.22220000
H        0.48310000      -3.05600000      -0.58250000
H        0.29990000      -2.82320000       1.16120000
H       -2.19090000      -3.65800000      -1.74250000
H       -3.32560000      -2.67880000      -0.77180000
H       -1.92570000      -1.91560000      -1.52200000
H       -3.52270000      -4.58830000       0.26550000
H       -3.41390000      -4.88370000       1.92530000
