19
Properties=species:S:1:pos:R:3 gdb_15908=T pbc="F F F"
C        0.09640000       1.53270000       0.16390000
N        0.09730000       0.08130000       0.14160000
C       -1.19680000      -0.59650000       0.37780000
C       -0.46810000      -1.65840000       1.23500000
O       -0.21120000      -2.88790000       0.59680000
C        0.71220000      -0.63440000       1.29020000
C        2.13840000      -1.11340000       1.02890000
O        2.92580000      -0.09390000       0.43160000
H        1.12470000       1.90320000       0.16330000
H       -0.41450000       1.92080000      -0.72400000
H       -0.41180000       1.94230000       1.05730000
H       -1.89990000       0.01080000       0.97000000
H       -1.71150000      -0.95570000      -0.52140000
H       -0.92390000      -1.90890000       2.19320000
H        0.06830000      -2.70370000      -0.30670000
H        0.66880000      -0.03430000       2.21340000
H        2.63040000      -1.38340000       1.96840000
H        2.11810000      -2.01500000       0.40090000
H        2.49910000       0.10400000      -0.41020000
