25
Properties=species:S:1:pos:R:3 gdb_103182=T pbc="F F F"
C       -0.35840000       1.20770000       0.22700000
O       -0.18350000      -0.18870000       0.11720000
C        0.47840000      -0.66790000      -1.03920000
C       -0.10470000      -0.10120000      -2.33280000
C        2.05620000      -0.63460000      -1.01810000
C        2.71910000      -0.25050000       0.30150000
C        2.05260000      -2.16410000      -1.31540000
C        0.51990000      -2.23130000      -1.05030000
C        0.10750000      -2.93580000       0.23820000
H        0.57640000       1.76340000       0.06980000
H       -1.11020000       1.59280000      -0.47570000
H       -0.70790000       1.40020000       1.24500000
H        0.07740000       0.97360000      -2.43270000
H        0.35630000      -0.59120000      -3.19570000
H       -1.18480000      -0.27870000      -2.37810000
H        2.48010000      -0.02850000      -1.82590000
H        2.26150000      -0.76770000       1.14900000
H        3.78220000      -0.51510000       0.27770000
H        2.65170000       0.82440000       0.49710000
H        2.33720000      -2.41660000      -2.33990000
H        2.66330000      -2.76480000      -0.63450000
H       -0.05520000      -2.65220000      -1.88200000
H        0.66430000      -2.56640000       1.10330000
H       -0.95580000      -2.78840000       0.44690000
H        0.29480000      -4.01200000       0.15060000
