20
Properties=species:S:1:pos:R:3 gdb_93725=T pbc="F F F"
C       -0.48590000       1.41110000       0.27670000
N        0.08610000       0.09100000       0.01720000
C       -0.90680000      -0.91390000      -0.36980000
C       -1.50660000      -1.44900000       0.95190000
C       -0.30250000      -1.40210000       1.93540000
N        0.26020000      -2.74820000       2.11600000
C        0.75150000      -0.50150000       1.16770000
C       -0.68320000      -0.79120000       3.22210000
N       -0.96160000      -0.33960000       4.25100000
H        0.31450000       2.10190000       0.55670000
H       -0.94560000       1.78890000      -0.64130000
H       -1.24700000       1.43650000       1.07580000
H       -1.65420000      -0.48910000      -1.04360000
H       -0.39730000      -1.72870000      -0.89750000
H       -2.31560000      -0.80470000       1.30320000
H       -1.89500000      -2.46630000       0.86650000
H        1.11320000      -2.69450000       2.66780000
H       -0.38530000      -3.32320000       2.65160000
H        1.53620000      -1.18790000       0.82870000
H        1.20230000       0.26190000       1.80430000
