15
Properties=species:S:1:pos:R:3 gdb_6309=T pbc="F F F"
C       -0.03480000       1.55850000       0.03760000
C       -0.02390000       0.02840000       0.00100000
O       -1.38180000      -0.47310000       0.03870000
C       -1.88230000      -0.70450000       1.28110000
N       -3.17610000      -1.12550000       1.18120000
O       -1.28040000      -0.53330000       2.31630000
C        0.60320000      -0.50100000      -1.20520000
C        1.14990000      -0.90590000      -2.19490000
H        0.98800000       1.94010000      -0.02130000
H       -0.60620000       1.95520000      -0.80510000
H       -0.48310000       1.89500000       0.97520000
H        0.48970000      -0.35040000       0.88990000
H       -3.51660000      -1.44210000       0.28930000
H       -3.58390000      -1.51480000       2.01350000
H        1.63280000      -1.27450000      -3.06610000
