20
Properties=species:S:1:pos:R:3 gdb_15943=T pbc="F F F"
C       -0.15240000       1.39850000      -0.07590000
O       -0.12470000      -0.01380000      -0.07840000
C        0.68300000      -0.55440000      -1.08140000
C        0.16600000      -0.46520000      -2.54740000
C        0.31470000      -2.01350000      -2.68120000
C        0.81880000      -2.10780000      -1.21640000
C        2.35670000      -1.97640000      -1.05600000
C        2.22540000      -0.42770000      -0.90910000
H        0.84650000       1.82860000       0.09030000
H       -0.54920000       1.80320000      -1.01880000
H       -0.80770000       1.70730000       0.74190000
H       -0.87540000      -0.13620000      -2.58880000
H        0.75550000       0.14580000      -3.23670000
H       -0.63490000      -2.52410000      -2.85590000
H        1.02840000      -2.35690000      -3.43520000
H        0.30050000      -2.79670000      -0.54960000
H        2.75110000      -2.46220000      -0.16070000
H        2.93910000      -2.32270000      -1.91440000
H        2.75090000       0.18170000      -1.64970000
H        2.49230000      -0.07440000       0.09010000
