18
Properties=species:S:1:pos:R:3 gdb_91084=T pbc="F F F"
O       -0.11540000       1.36380000      -0.20480000
C        0.02720000      -0.01880000      -0.06230000
C        0.28250000      -0.66120000       1.36290000
C       -0.65480000      -1.85400000       0.96760000
C       -1.90850000      -2.29170000       1.70500000
N       -2.68890000      -1.20450000       2.32630000
C       -3.07880000      -1.70230000       0.97120000
C       -2.52250000      -0.79030000      -0.08060000
C       -1.19160000      -0.91300000      -0.09330000
H       -0.86400000       1.63060000       0.34190000
H        0.81360000      -0.32190000      -0.76110000
H        1.31890000      -0.89650000       1.61320000
H       -0.17560000      -0.04960000       2.14310000
H       -0.08500000      -2.70820000       0.58890000
H       -1.96660000      -3.28280000       2.14140000
H       -3.31100000      -1.61950000       3.01780000
H       -4.02810000      -2.21760000       0.86730000
H       -3.10830000      -0.01930000      -0.56730000
