27
Properties=species:S:1:pos:R:3 gdb_58187=T pbc="F F F"
C       -0.69550000       1.79490000       0.50030000
C       -0.40740000       0.33240000       0.13690000
O        0.60390000      -0.16630000       1.01600000
C       -1.67790000      -0.55970000       0.08210000
C       -2.64470000       0.01720000      -0.97230000
C       -1.39410000      -2.09720000      -0.12860000
C       -0.89660000      -2.74630000       1.18210000
C       -2.69380000      -2.83600000      -0.51780000
C       -0.34660000      -2.33470000      -1.23400000
H        0.25530000       2.31210000       0.65460000
H       -1.24710000       2.32720000      -0.27750000
H       -1.27580000       1.86110000       1.43000000
H        0.06930000       0.31030000      -0.85010000
H        0.26770000      -0.09360000       1.91630000
H       -2.17570000      -0.46790000       1.06120000
H       -2.21960000      -0.04370000      -1.98070000
H       -3.59770000      -0.51310000      -0.98060000
H       -2.86990000       1.06690000      -0.77370000
H       -1.62010000      -2.59580000       1.99270000
H       -0.78190000      -3.82790000       1.04670000
H        0.06520000      -2.34050000       1.49270000
H       -3.04570000      -2.57290000      -1.51890000
H       -2.51880000      -3.91700000      -0.50900000
H       -3.50360000      -2.62960000       0.19170000
H        0.63630000      -1.95740000      -0.94120000
H       -0.24500000      -3.40730000      -1.43260000
H       -0.63300000      -1.85700000      -2.17780000
