20
Properties=species:S:1:pos:R:3 gdb_106689=T pbc="F F F"
C        0.38770000       1.31320000       0.00080000
C        0.05420000      -0.14120000       0.13200000
C        1.01230000      -1.27010000      -0.12310000
C        0.32810000      -1.17040000       1.22940000
C        1.06290000      -1.07620000       2.54440000
O        2.30460000      -0.39120000       2.44370000
C       -1.10370000      -1.60980000       1.05640000
C       -2.03960000      -0.46760000       1.17350000
N       -1.32700000      -0.64490000      -0.10630000
H        1.38940000       1.50640000       0.39310000
H        0.35410000       1.62790000      -1.04830000
H       -0.31780000       1.93670000       0.56050000
H        0.74610000      -2.06040000      -0.82020000
H        2.05800000      -0.97770000      -0.13970000
H        0.46610000      -0.50540000       3.26510000
H        1.20000000      -2.08300000       2.97230000
H        2.92370000      -0.97440000       1.99410000
H       -1.45150000      -2.63730000       0.99390000
H       -3.10210000      -0.68010000       1.09960000
H       -1.78550000       0.37820000       1.80820000
