20
Properties=species:S:1:pos:R:3 gdb_104240=T pbc="F F F"
C       -0.17390000       1.54800000       0.04840000
C       -0.07210000       0.02480000      -0.00840000
C       -1.42730000      -0.62160000      -0.30100000
O       -1.94300000      -0.27290000      -1.57470000
C        1.12010000      -0.46500000      -0.88810000
C        1.97160000      -0.67540000       0.38980000
C        0.66380000      -0.60500000       1.23860000
C        0.68600000       0.13400000       2.48810000
N        0.70570000       0.74390000       3.47090000
H        0.79090000       2.01220000       0.27240000
H       -0.50380000       1.93680000      -0.92080000
H       -0.88140000       1.87450000       0.81820000
H       -1.31660000      -1.71200000      -0.31610000
H       -2.13730000      -0.37610000       0.50550000
H       -2.28210000       0.62580000      -1.52740000
H        0.89110000      -1.40200000      -1.40230000
H        1.50320000       0.24650000      -1.62180000
H        2.54390000      -1.60030000       0.47510000
H        2.63400000       0.16590000       0.60100000
H        0.27650000      -1.61020000       1.43510000
