16
Properties=species:S:1:pos:R:3 gdb_127259=T pbc="F F F"
C        0.00140000       1.43400000       0.03960000
N        0.00290000      -0.00800000      -0.07510000
C        0.05310000      -0.78040000      -1.18760000
C        0.02480000      -2.07630000      -0.71150000
N        0.06070000      -3.23150000      -1.47370000
C        0.02730000      -4.35780000      -0.86350000
N       -0.00200000      -5.53720000      -1.54310000
N       -0.04140000      -2.01720000       0.65560000
N       -0.05410000      -0.77060000       1.03350000
H        0.91410000       1.85820000      -0.38890000
H       -0.86680000       1.86290000      -0.46930000
H       -0.04600000       1.67200000       1.10230000
H        0.10220000      -0.37810000      -2.18440000
H       -0.01800000      -4.45500000       0.22450000
H        0.19210000      -5.50260000      -2.53230000
H        0.24450000      -6.38360000      -1.06030000
