11
Properties=species:S:1:pos:R:3 gdb_133418=T pbc="F F F"
F        0.03290000       0.06590000       0.20990000
C        0.01210000       1.38010000       0.05740000
C       -1.15530000       2.04230000       0.00610000
O       -1.25780000       3.38340000      -0.14770000
N       -0.11690000       4.15200000      -0.26240000
C        1.00110000       3.53140000      -0.21500000
F        2.07420000       4.29530000      -0.32590000
C        1.26740000       2.09130000      -0.05300000
N        2.41690000       1.53280000      -0.01310000
H       -2.12650000       1.57180000       0.08220000
H        3.15260000       2.23420000      -0.11100000
