23
Properties=species:S:1:pos:R:3 gdb_107664=T pbc="F F F"
C       -0.51030000       1.43240000       0.16730000
C        0.18090000       0.09130000      -0.11150000
C        0.92650000      -0.46570000       1.08870000
C        2.13720000       0.31750000       1.57180000
C        2.86010000      -0.36310000       2.74200000
C        3.18960000      -1.82050000       2.40300000
C        1.91810000      -2.65330000       2.16830000
C        0.84330000      -1.90880000       1.39500000
O        0.07350000      -0.95020000       2.14120000
H        0.20960000       2.22780000       0.38290000
H       -1.10170000       1.74980000      -0.69670000
H       -1.18320000       1.34240000       1.02540000
H       -0.57150000      -0.64320000      -0.41930000
H        0.88230000       0.19600000      -0.94950000
H        2.82860000       0.43310000       0.72540000
H        1.82490000       1.32860000       1.85760000
H        3.77560000       0.19070000       2.97520000
H        2.22340000      -0.32420000       3.63270000
H        3.80880000      -1.83970000       1.49590000
H        3.78940000      -2.27760000       3.19710000
H        2.16670000      -3.57780000       1.63500000
H        1.48100000      -2.95690000       3.12780000
H        0.22980000      -2.52500000       0.73520000
