17
Properties=species:S:1:pos:R:3 gdb_12129=T pbc="F F F"
C       -0.03810000       1.52460000       0.03630000
C        0.09990000       0.03600000       0.00970000
N       -0.85180000      -0.87450000       0.70360000
C        0.60660000      -0.92840000       1.00550000
C        1.32080000      -1.74300000      -0.12330000
O        2.62410000      -2.18310000       0.01270000
C        0.36780000      -2.22540000      -1.18000000
C        0.78920000      -0.76520000      -1.14420000
H        0.90050000       2.00980000      -0.25310000
H       -0.81660000       1.86520000      -0.65710000
H       -0.30180000       1.87640000       1.03980000
H       -1.28870000      -0.33360000       1.45090000
H        0.99440000      -0.77250000       2.00500000
H        2.60120000      -3.08790000       0.34490000
H        0.85980000      -2.78610000      -1.96950000
H       -0.64760000      -2.51990000      -0.94720000
H        1.30840000      -0.29090000      -1.96680000
