16
Properties=species:S:1:pos:R:3 gdb_132347=T pbc="F F F"
C       -0.02210000       1.49280000       0.03850000
C        0.03410000      -0.01060000      -0.01390000
C       -0.00580000      -0.69630000      -1.21870000
C        0.04920000      -2.10220000      -1.22240000
N        0.06390000      -2.80940000      -2.40610000
C        0.14040000      -2.75010000       0.01280000
C        0.17210000      -1.94710000       1.14330000
F        0.25770000      -2.55630000       2.32700000
N        0.12310000      -0.63700000       1.17610000
H        0.87260000       1.88690000       0.53100000
H       -0.09680000       1.93280000      -0.95870000
H       -0.88140000       1.81860000       0.63330000
H       -0.07490000      -0.15300000      -2.15510000
H       -0.30190000      -2.33890000      -3.21880000
H       -0.18950000      -3.78360000      -2.35690000
H        0.18850000      -3.82850000       0.10040000
