16
Properties=species:S:1:pos:R:3 gdb_62322=T pbc="F F F"
C       -0.05270000       1.60700000      -0.01930000
C        0.09820000       0.07750000       0.03640000
C       -1.04910000      -0.60670000      -0.53160000
N       -1.97020000      -1.13810000      -0.98740000
C        1.36010000      -0.75550000      -0.20260000
C        2.63820000      -0.15430000       0.46120000
O        2.31180000       1.06930000       1.12840000
C        1.99800000      -0.16970000       1.77280000
C        0.69400000      -0.77160000       1.16220000
H        0.74570000       2.06210000      -0.60470000
H       -1.00930000       1.86010000      -0.48310000
H       -0.02710000       2.04350000       0.97880000
H        1.38510000      -1.53920000      -0.94780000
H        3.66290000      -0.30550000       0.14680000
H        2.38220000      -0.33630000       2.77110000
H        0.12930000      -1.56950000       1.62530000
