14
Properties=species:S:1:pos:R:3 gdb_49316=T pbc="F F F"
N       -0.00710000       1.31780000       0.01110000
C        0.04620000       0.04960000       0.00360000
C        1.21250000      -0.86180000      -0.00880000
C        0.79510000      -2.13190000      -0.01340000
C       -0.68010000      -2.15610000      -0.00460000
N       -1.50360000      -3.12500000      -0.00500000
N       -1.08910000      -0.80000000       0.00570000
C       -2.44430000      -0.43150000       0.01640000
O       -2.85440000       0.69540000       0.02710000
H        0.93940000       1.70010000       0.00750000
H        2.22920000      -0.49330000      -0.01290000
H        1.39140000      -3.03380000      -0.02220000
H       -1.00880000      -4.01540000      -0.01300000
H       -3.07650000      -1.33270000       0.01680000
