17
Properties=species:S:1:pos:R:3 gdb_79483=T pbc="F F F"
C       -0.12500000       1.57060000      -0.01900000
C       -0.00370000       0.06430000       0.05170000
N        1.19290000      -0.56390000      -0.66490000
C        2.09870000      -0.29350000       0.56990000
C        2.57890000      -1.74570000       0.59110000
C        1.08710000      -1.80230000       0.26190000
C        0.71100000      -0.62350000       1.22390000
C        0.36940000      -0.68060000       2.62630000
N        0.08910000      -0.71950000       3.74810000
H        0.79320000       2.07530000       0.29470000
H       -0.34900000       1.87930000      -1.04480000
H       -0.93870000       1.91830000       0.62540000
H       -0.93830000      -0.42140000      -0.25310000
H        2.66610000       0.63100000       0.66780000
H        3.25480000      -2.03290000      -0.21720000
H        2.89180000      -2.15180000       1.55500000
H        0.44450000      -2.64230000      -0.00450000
