19
Properties=species:S:1:pos:R:3 gdb_76372=T pbc="F F F"
C       -0.09750000       1.57880000      -0.04310000
C       -0.00280000       0.06960000      -0.02170000
C        1.29680000      -0.68020000      -0.19820000
N        2.54800000       0.06280000      -0.15520000
C        0.57430000      -0.68500000       1.13980000
N        1.34180000       0.13100000       2.12210000
H        2.17160000       0.44210000       1.51360000
H        0.81970000       0.94320000       2.45380000
H        1.65930000      -0.41260000       2.92400000
C       -1.23470000      -0.72540000      -0.66190000
O       -2.03560000      -0.01300000      -1.27340000
O       -1.17270000      -1.95140000      -0.44600000
H        0.86260000       2.10850000      -0.09620000
H       -0.70760000       1.83000000      -0.91480000
H       -0.64420000       1.96140000       0.82980000
H        1.25160000      -1.59540000      -0.77750000
H        3.34040000      -0.54700000      -0.33080000
H        2.56830000       0.79930000      -0.85400000
H        0.06840000      -1.55710000       1.53060000
