23
Properties=species:S:1:pos:R:3 gdb_93821=T pbc="F F F"
C        0.01790000       1.54090000      -0.06210000
C       -0.00600000       0.01500000       0.00220000
O        0.59940000      -0.45740000      -1.19370000
C        0.92370000      -1.83500000      -1.13670000
C        2.02720000      -2.09410000      -0.10330000
C        3.38730000      -1.56800000      -0.59800000
C        1.61170000      -1.46860000       1.21690000
C        2.27990000      -1.97440000       2.46630000
C        0.67280000      -0.52060000       1.23730000
H        1.04950000       1.90420000      -0.05530000
H       -0.46770000       1.88370000      -0.97980000
H       -0.51060000       1.97030000       0.79430000
H       -1.06410000      -0.31320000       0.01780000
H        0.02930000      -2.43040000      -0.89040000
H        1.25040000      -2.11340000      -2.14380000
H        2.10880000      -3.18140000       0.04170000
H        3.30160000      -0.51120000      -0.86560000
H        4.16530000      -1.66700000       0.16460000
H        3.71750000      -2.12080000      -1.48420000
H        3.36810000      -1.84190000       2.42320000
H        1.91370000      -1.45630000       3.35680000
H        2.10370000      -3.04980000       2.59960000
H        0.34410000      -0.09080000       2.18170000
