21
Properties=species:S:1:pos:R:3 gdb_40166=T pbc="F F F"
C       -0.35800000       1.40430000       0.06210000
C        1.12190000       1.10920000      -0.04110000
C        0.12770000      -0.01970000      -0.02840000
C        0.09850000      -0.92870000       1.20220000
O       -0.80700000      -2.02280000       1.06580000
C       -0.93490000      -2.49380000      -0.27060000
C        0.35660000      -2.27210000      -1.10830000
C       -0.16950000      -0.81490000      -1.29150000
C       -1.60390000      -1.40830000      -1.15400000
H       -0.74170000       1.75890000       1.01340000
H       -0.85340000       1.83270000      -0.80380000
H        1.62780000       1.33770000      -0.97370000
H        1.73420000       1.26260000       0.84290000
H        1.11100000      -1.31980000       1.38500000
H       -0.20500000      -0.38120000       2.10020000
H       -1.37640000      -3.48990000      -0.20490000
H        1.32790000      -2.43560000      -0.63570000
H        0.30960000      -2.83680000      -2.04230000
H        0.09140000      -0.26320000      -2.19840000
H       -1.97390000      -1.81870000      -2.09770000
H       -2.37170000      -0.79220000      -0.68040000
