23
Properties=species:S:1:pos:R:3 gdb_40882=T pbc="F F F"
C        0.09450000       1.40540000      -0.53520000
C        1.40010000       1.61960000       0.27820000
C        1.27450000       0.16150000       0.79800000
C       -0.19260000       0.13010000       0.30320000
C        2.35260000      -0.86980000       0.33890000
C        3.18530000      -0.36440000       1.55260000
C        1.77930000      -0.24490000       2.20880000
C        1.33920000      -1.71960000       2.29840000
C        1.78680000      -2.19870000       0.87530000
H       -0.65010000       2.20380000      -0.49920000
H        0.29670000       1.17140000      -1.58380000
H        2.30070000       1.87920000      -0.28530000
H        1.27240000       2.35590000       1.07870000
H       -0.90230000       0.31790000       1.11610000
H       -0.52400000      -0.76020000      -0.23870000
H        2.75060000      -0.86470000      -0.67770000
H        3.90420000      -1.05650000       2.00250000
H        3.65740000       0.60330000       1.37540000
H        1.59790000       0.38930000       3.07880000
H        1.84710000      -2.25660000       3.10500000
H        0.26150000      -1.82350000       2.45520000
H        0.95250000      -2.57500000       0.27680000
H        2.54780000      -2.98370000       0.91360000
