18
Properties=species:S:1:pos:R:3 gdb_90194=T pbc="F F F"
O       -0.04840000       1.42520000       0.03490000
C        0.00090000       0.00950000      -0.01400000
C        0.60460000      -0.64520000       1.30490000
C       -0.67040000      -1.34300000       1.73430000
C       -1.55120000      -2.21930000       2.64070000
N       -2.54880000      -1.86650000       1.52230000
C       -1.90740000      -0.45830000       1.43550000
C       -1.46060000      -0.51380000      -0.02980000
C       -1.38760000      -1.94860000       0.50200000
H        0.85180000       1.76150000      -0.01130000
H        0.55370000      -0.32710000      -0.90300000
H        1.43660000      -1.32320000       1.09200000
H        0.94520000       0.13850000       1.98750000
H       -1.32600000      -3.28890000       2.70230000
H       -1.83960000      -1.82610000       3.62080000
H       -2.28910000       0.37410000       2.02650000
H       -2.08220000      -0.20120000      -0.86910000
H       -1.15260000      -2.88430000      -0.00880000
