20
Properties=species:S:1:pos:R:3 gdb_62776=T pbc="F F F"
C       -0.06190000       1.54100000      -0.10050000
C        0.04560000       0.03070000       0.00720000
C       -1.19500000      -0.68320000      -0.51420000
C        1.32090000      -0.73480000      -0.24000000
C        2.56160000       0.00520000       0.27350000
C        1.95310000      -0.02710000       1.72400000
C        1.83290000       1.21310000       2.48260000
N        1.74830000       2.19470000       3.08850000
C        0.68740000      -0.70190000       1.16230000
H        0.81560000       2.07270000       0.26910000
H       -0.21240000       1.83140000      -1.14680000
H       -0.92190000       1.90500000       0.47180000
H       -1.37140000      -0.43310000      -1.56610000
H       -1.09880000      -1.77110000      -0.44020000
H       -2.08360000      -0.38460000       0.05270000
H        1.35610000      -1.56290000      -0.93800000
H        3.47780000      -0.58420000       0.21690000
H        2.75460000       0.99360000      -0.14950000
H        2.51330000      -0.73730000       2.33790000
H        0.15790000      -1.48250000       1.69580000
