18
Properties=species:S:1:pos:R:3 gdb_84947=T pbc="F F F"
O       -0.01990000       1.36730000      -0.29370000
C        0.02340000      -0.04480000      -0.07480000
C        0.74650000      -0.39190000       1.21580000
C        0.34080000      -0.01610000       2.43020000
C       -0.94770000       0.73390000       2.75210000
N       -2.19550000       0.17740000       2.23140000
C       -2.41650000       0.27750000       0.78460000
C       -1.42560000      -0.55280000      -0.03080000
O       -1.72600000      -1.59790000      -0.55920000
H        0.83780000       1.72610000      -0.04350000
H        0.50590000      -0.55510000      -0.91730000
H        1.66740000      -0.95850000       1.11080000
H        0.97270000      -0.26420000       3.28080000
H       -1.04830000       0.79560000       3.84080000
H       -0.87070000       1.76470000       2.38510000
H       -2.28840000      -0.79100000       2.52220000
H       -3.42120000      -0.08910000       0.55740000
H       -2.34410000       1.33000000       0.49670000
