10
Properties=species:S:1:pos:R:3 gdb_23854=T pbc="F F F"
F        0.05660000       0.07290000       0.15120000
C        0.00290000       1.37620000       0.03760000
N       -1.17170000       1.87620000      -0.03490000
O       -1.21530000       3.27350000      -0.15680000
C       -0.05740000       3.95700000      -0.18710000
N        1.12930000       3.50320000      -0.11830000
C        1.27790000       2.11300000       0.00560000
N        2.38160000       1.48810000       0.08690000
H       -0.26560000       5.01960000      -0.28410000
H        3.15050000       2.16210000       0.04770000
