15
Properties=species:S:1:pos:R:3 gdb_42768=T pbc="F F F"
O       -0.04260000      -0.04360000      -0.05370000
C       -0.03820000       1.13670000       0.06340000
C       -1.02120000       2.32290000       0.01800000
C       -0.81120000       2.99680000       1.38550000
C        0.75340000       2.98440000       1.41060000
C        1.00630000       2.30710000       0.04020000
O       -0.00420000       2.96270000      -0.81770000
C        2.33170000       2.20470000      -0.48570000
C        3.45400000       2.08480000      -0.89850000
H       -2.00940000       2.27610000      -0.43300000
H       -1.21690000       4.01010000       1.38560000
H       -1.26480000       2.43480000       2.20610000
H        1.18510000       3.98640000       1.42340000
H        1.17610000       2.40680000       2.23580000
H        4.44260000       1.97730000      -1.27200000
