23
Properties=species:S:1:pos:R:3 gdb_114390=T pbc="F F F"
C       -0.09090000       1.48990000      -0.24440000
C       -0.03120000      -0.00400000       0.08560000
C       -1.41210000      -0.62950000       0.18970000
O       -2.11470000      -0.57840000      -1.09420000
C       -2.07260000      -2.00330000      -1.18780000
C       -1.44910000      -2.15600000       0.18390000
C       -2.85720000      -2.67470000      -0.09410000
C       -4.09660000      -2.03320000       0.49490000
C       -2.91700000      -4.18800000      -0.21320000
H        0.91270000       1.91220000      -0.34980000
H       -0.63060000       1.64950000      -1.18200000
H       -0.60900000       2.04970000       0.54200000
H        0.54030000      -0.53940000      -0.68200000
H        0.48810000      -0.16550000       1.04020000
H       -1.99940000      -0.12810000       0.97130000
H       -1.84880000      -2.43910000      -2.15640000
H       -0.64600000      -2.79720000       0.52660000
H       -4.07790000      -0.94800000       0.37900000
H       -4.99310000      -2.40260000      -0.01610000
H       -4.20070000      -2.27120000       1.55980000
H       -3.01080000      -4.65540000       0.77380000
H       -3.77980000      -4.49880000      -0.81280000
H       -2.01580000      -4.59250000      -0.68620000
