16
Properties=species:S:1:pos:R:3 gdb_117612=T pbc="F F F"
C        0.23070000       0.93250000       0.41620000
O       -0.24240000       0.06310000      -0.60910000
C       -1.44680000      -0.59730000      -0.33400000
C       -1.16020000      -2.12030000      -0.07030000
N       -0.35040000      -2.74070000      -1.12290000
C       -0.43680000      -2.25600000       1.21530000
N        0.13510000      -2.31140000       2.21670000
C       -2.45550000      -2.81650000       0.03230000
N       -3.50140000      -3.30360000       0.07130000
H        1.15890000       1.37030000       0.04410000
H       -0.49090000       1.73690000       0.61010000
H        0.43500000       0.39500000       1.34850000
H       -1.98500000      -0.15850000       0.51470000
H       -2.08880000      -0.54560000      -1.22160000
H       -0.91250000      -2.83110000      -1.96500000
H        0.40920000      -2.09570000      -1.33170000
