13
Properties=species:S:1:pos:R:3 gdb_981=T pbc="F F F"
N       -0.21780000       1.42840000      -0.04550000
C       -0.01290000       0.01480000      -0.01230000
C       -1.08100000      -0.84700000      -0.09250000
O       -2.39910000      -0.57790000      -0.20660000
N       -0.62710000      -2.12890000      -0.03960000
C        0.75620000      -2.11200000       0.07660000
C        1.16050000      -0.80220000       0.09560000
H        0.26590000       1.86130000      -0.82680000
H        0.12840000       1.87960000       0.79610000
H       -2.44600000       0.39010000      -0.22190000
H       -1.21240000      -2.94420000      -0.07970000
H        1.31250000      -3.03240000       0.13400000
H        2.18040000      -0.45680000       0.17750000
