16
Properties=species:S:1:pos:R:3 gdb_54084=T pbc="F F F"
C        0.12430000       1.42920000       0.00380000
C       -0.03560000      -0.07190000       0.13260000
O        0.90380000      -0.80830000       0.33630000
N       -1.32100000      -0.62700000       0.00920000
C       -1.41630000      -2.08430000       0.08440000
C       -0.98840000      -2.63110000       1.44070000
O       -0.69870000      -3.78130000       1.61800000
C       -2.48270000       0.11290000      -0.18230000
O       -3.58170000      -0.37220000      -0.28880000
H        1.18630000       1.64810000       0.10920000
H       -0.22500000       1.79320000      -0.96670000
H       -0.42900000       1.96150000       0.78330000
H       -2.46790000      -2.33520000      -0.08010000
H       -0.80840000      -2.55420000      -0.69120000
H       -1.00940000      -1.88760000       2.26900000
H       -2.30330000       1.19680000      -0.22590000
