17
Properties=species:S:1:pos:R:3 gdb_17471=T pbc="F F F"
O       -0.14830000       1.38560000       0.00550000
C       -0.05230000      -0.00710000       0.01620000
C       -0.45990000      -0.78000000      -1.20700000
C       -1.30140000      -0.85230000       0.05840000
C       -1.06510000      -1.94640000       1.06990000
C        0.00200000      -2.95620000       0.85180000
N        0.27530000      -1.78170000       1.68820000
C        0.93180000      -0.64020000       1.01560000
H        0.49470000       1.72550000      -0.62570000
H       -0.88950000      -0.19250000      -2.01260000
H        0.11600000      -1.63630000      -1.53950000
H       -2.27710000      -0.38270000       0.03610000
H       -1.88520000      -2.16840000       1.74700000
H       -0.02280000      -3.89680000       1.39680000
H        0.46360000      -3.03200000      -0.12910000
H        1.87770000      -0.95670000       0.56050000
H        1.15920000       0.11840000       1.77100000
