23
Properties=species:S:1:pos:R:3 gdb_114809=T pbc="F F F"
C        0.03750000       1.54930000      -0.17090000
C        0.05990000       0.02100000      -0.04880000
C       -1.33320000      -0.58630000       0.06240000
C       -2.28020000      -0.59320000      -1.18050000
C       -2.67310000      -2.07200000      -0.88820000
C       -1.91540000      -3.11560000      -1.74060000
C       -0.70900000      -3.04330000      -0.75270000
C       -1.54400000      -2.12050000       0.19250000
O       -1.82360000      -2.63360000       1.46800000
H        1.04900000       1.95840000      -0.25830000
H       -0.52710000       1.86690000      -1.05420000
H       -0.43490000       2.00790000       0.70470000
H        0.58080000      -0.40110000      -0.91770000
H        0.65330000      -0.26440000       0.83130000
H       -1.86140000      -0.13410000       0.91080000
H       -3.09920000       0.12820000      -1.14810000
H       -1.75570000      -0.46870000      -2.13400000
H       -3.71840000      -2.25770000      -0.64150000
H       -2.39460000      -4.09770000      -1.74200000
H       -1.71470000      -2.82920000      -2.77690000
H       -0.46580000      -3.99800000      -0.28050000
H        0.20980000      -2.61060000      -1.15610000
H       -0.99550000      -2.68900000       1.95830000
