20
Properties=species:S:1:pos:R:3 gdb_13374=T pbc="F F F"
C        0.05790000       1.56600000       0.07210000
C        0.13610000       0.03770000       0.07270000
C        0.57740000      -0.53280000      -1.29010000
C        0.65640000      -2.02840000      -1.32530000
C       -0.07150000      -2.88430000      -2.03870000
C        0.36120000      -4.29560000      -1.76860000
O        1.41130000      -4.18610000      -0.80980000
C        1.65370000      -2.81700000      -0.50890000
H        1.03130000       2.01240000      -0.15990000
H       -0.65670000       1.92610000      -0.67650000
H       -0.26000000       1.94830000       1.04690000
H        0.83290000      -0.29280000       0.85240000
H       -0.84050000      -0.38680000       0.33520000
H       -0.11600000      -0.18840000      -2.06630000
H        1.56050000      -0.10850000      -1.54300000
H       -0.86300000      -2.63030000      -2.73360000
H       -0.44990000      -4.92000000      -1.36050000
H        0.73120000      -4.80360000      -2.67440000
H        2.69280000      -2.54940000      -0.76610000
H        1.54130000      -2.65200000       0.57440000
