19
Properties=species:S:1:pos:R:3 gdb_38112=T pbc="F F F"
C       -0.10360000       1.44270000       0.12790000
C        1.31430000       0.91710000      -0.01480000
C        2.04830000       0.56430000       1.23440000
C        1.45700000      -0.42750000       1.90970000
C        0.21440000      -0.92910000       1.21110000
C        0.21010000      -2.38370000       0.63890000
C       -0.24720000      -2.19560000      -0.79420000
C       -0.28960000      -0.91140000      -1.15750000
C        0.10970000      -0.03160000      -0.03840000
H       -0.42050000       1.81650000       1.09780000
H       -0.50920000       1.98690000      -0.72020000
H        1.86300000       1.16980000      -0.91610000
H        2.95160000       1.07840000       1.54580000
H        1.78810000      -0.81400000       2.86770000
H       -0.66510000      -0.80650000       1.85630000
H        1.21220000      -2.83070000       0.67020000
H       -0.44680000      -3.05440000       1.20490000
H       -0.47740000      -3.03370000      -1.44250000
H       -0.55590000      -0.54010000      -2.14070000
