16
Properties=species:S:1:pos:R:3 gdb_22434=T pbc="F F F"
C       -1.09210000       1.52030000      -0.85700000
C       -0.06730000       0.48800000      -0.35330000
C       -0.70290000      -0.52240000       0.49600000
C       -1.24760000      -1.34150000       1.18580000
C        0.71460000      -0.19070000      -1.48030000
N        0.35340000       0.05780000      -2.68660000
O        1.13180000      -0.59960000      -3.62630000
C        1.80110000      -1.03720000      -1.11990000
C        2.72180000      -1.72750000      -0.76770000
H       -0.59750000       2.28810000      -1.45570000
H       -1.85260000       1.04170000      -1.47600000
H       -1.58110000       1.99130000      -0.00100000
H        0.67860000       1.01310000       0.26050000
H       -1.72000000      -2.06860000       1.79870000
H        0.73850000      -0.31210000      -4.45810000
H        3.53240000      -2.34600000      -0.46940000
