19
Properties=species:S:1:pos:R:3 gdb_91497=T pbc="F F F"
C        0.06420000       1.54680000       0.08830000
C        0.14380000       0.03630000      -0.03940000
O        1.06050000      -0.38830000      -1.07760000
C        1.88880000      -1.28260000      -0.36550000
C        2.28070000      -0.45270000       0.95880000
C        0.74980000      -0.73720000       1.16770000
O       -0.26550000      -1.17440000       2.11290000
C       -0.45810000      -2.35880000       1.23350000
C        0.97430000      -2.11330000       0.64020000
H        1.02590000       1.99280000       0.35280000
H       -0.26600000       1.98800000      -0.85680000
H       -0.66620000       1.80940000       0.86090000
H       -0.85150000      -0.34860000      -0.28660000
H        2.63440000      -1.73080000      -1.02120000
H        2.92920000      -0.99380000       1.64510000
H        2.63870000       0.56420000       0.78650000
H       -0.56060000      -3.27010000       1.82640000
H       -1.32450000      -2.22830000       0.58190000
H        1.65850000      -2.64750000       1.30230000
