17
Properties=species:S:1:pos:R:3 gdb_72069=T pbc="F F F"
C       -0.29270000       1.31720000       0.01690000
C       -0.04890000      -0.14980000       0.06640000
O        0.94460000      -0.74410000      -0.76700000
C        0.30520000      -2.03050000      -0.51540000
C        0.61280000      -2.28670000       0.98030000
C       -0.28080000      -1.06950000       1.24140000
C       -1.02770000      -1.31910000      -0.09540000
C       -2.44580000      -1.30160000      -0.41860000
O       -3.24890000      -0.57620000       0.13140000
H        0.52240000       1.86430000       0.50180000
H       -0.37340000       1.65810000      -1.01880000
H       -1.22840000       1.54760000       0.53310000
H        0.47190000      -2.75910000      -1.30520000
H        0.15230000      -3.20730000       1.34540000
H        1.66600000      -2.23220000       1.27110000
H       -0.74280000      -0.73860000       2.16230000
H       -2.75690000      -1.99130000      -1.23400000
