16
Properties=species:S:1:pos:R:3 gdb_55502=T pbc="F F F"
C       -0.03440000       1.52720000      -0.05180000
C        0.17990000       0.03830000       0.02070000
N        1.34080000      -0.46860000       0.07060000
N       -1.03650000      -0.68720000       0.02550000
C       -1.19290000      -2.03350000       0.08300000
O       -0.31390000      -2.87740000       0.14170000
C       -2.69110000      -2.41660000       0.06590000
N       -2.86490000      -3.74760000       0.12250000
O       -3.56390000      -1.56740000       0.00730000
H        0.93460000       2.02390000      -0.05200000
H       -0.58100000       1.80040000      -0.96170000
H       -0.62170000       1.88060000       0.80350000
H        1.29290000      -1.48730000       0.11570000
H       -1.91900000      -0.18860000      -0.01760000
H       -2.04700000      -4.33520000       0.16830000
H       -3.79080000      -4.14020000       0.11940000
