19
Properties=species:S:1:pos:R:3 gdb_68984=T pbc="F F F"
O       -0.16750000       1.38360000       0.13540000
C       -0.03800000       0.01370000      -0.01930000
C       -0.35190000      -0.95620000       1.08840000
C       -1.16110000      -1.00190000      -0.19100000
C       -2.65780000      -0.80000000      -0.21440000
C       -3.40470000      -2.00630000       0.13700000
C       -3.99630000      -3.01290000       0.42250000
C       -0.34310000      -1.73290000      -1.26500000
C        0.79080000      -0.66060000      -1.11670000
H        0.45720000       1.67690000       0.80760000
H        0.32750000      -1.76500000       1.35090000
H       -0.87490000      -0.51200000       1.93040000
H       -2.92180000       0.01290000       0.47400000
H       -2.96710000      -0.46220000      -1.21300000
H       -4.52870000      -3.89560000       0.67620000
H       -0.07000000      -2.76590000      -1.02990000
H       -0.81260000      -1.71010000      -2.25170000
H        0.87540000      -0.03050000      -2.00490000
H        1.78750000      -1.01660000      -0.83450000
