23
Properties=species:S:1:pos:R:3 gdb_118008=T pbc="F F F"
C       -0.12820000       1.52900000      -0.05670000
C       -0.02050000       0.02510000       0.13580000
O       -1.30760000      -0.53700000      -0.03380000
C       -1.36500000      -1.95590000       0.01390000
C       -1.32360000      -2.46940000       1.45400000
C       -2.67000000      -2.34990000      -0.72380000
C       -2.69810000      -1.80550000      -2.16590000
C       -2.86670000      -3.79800000      -0.71760000
C       -3.01920000      -4.99050000      -0.74840000
H        0.85130000       2.00020000       0.06920000
H       -0.50140000       1.76350000      -1.05770000
H       -0.81730000       1.96030000       0.67500000
H        0.68010000      -0.40980000      -0.59640000
H        0.37940000      -0.19890000       1.13690000
H       -0.51570000      -2.37540000      -0.55100000
H       -0.39110000      -2.18250000       1.94780000
H       -2.15700000      -2.04980000       2.02690000
H       -1.39760000      -3.55910000       1.47650000
H       -3.49330000      -1.88390000      -0.16410000
H       -3.64770000      -2.04960000      -2.64860000
H       -2.56810000      -0.72260000      -2.15430000
H       -1.89370000      -2.25110000      -2.75990000
H       -3.16340000      -6.04230000      -0.76570000
