15
Properties=species:S:1:pos:R:3 gdb_14850=T pbc="F F F"
C        0.00070000       1.23980000       0.47520000
O       -0.10670000       0.15000000      -0.42740000
C       -1.29500000      -0.55360000      -0.32800000
C       -1.41450000      -1.70270000      -1.33790000
O       -1.69080000      -2.65930000      -0.28450000
C       -1.42070000      -1.69680000       0.74800000
C       -0.19770000      -1.98400000       1.50180000
N        0.76020000      -2.19360000       2.11330000
H        0.94580000       1.73930000       0.25650000
H       -0.82630000       1.95150000       0.33630000
H        0.01200000       0.90210000       1.51950000
H       -2.16460000       0.11690000      -0.29570000
H       -2.23090000      -1.64990000      -2.06360000
H       -0.46700000      -1.91140000      -1.84640000
H       -2.25980000      -1.60970000       1.44750000
