21
Properties=species:S:1:pos:R:3 gdb_76719=T pbc="F F F"
C        0.03480000       1.58850000      -0.27140000
C        0.06560000       0.08520000      -0.09440000
C        1.38090000      -0.66440000      -0.00780000
O        2.58160000       0.05420000       0.07050000
C        0.49210000      -0.58440000       1.20420000
C        0.92400000       0.19520000       2.42950000
C        1.87010000      -0.62990000       3.32590000
C        2.34990000       0.16540000       4.51540000
O        2.22640000      -0.16170000       5.66810000
H        0.94380000       2.06000000       0.10870000
H       -0.05200000       1.84800000      -1.33250000
H       -0.82060000       2.03630000       0.24560000
H       -0.72270000      -0.43680000      -0.63140000
H        1.46460000      -1.62110000      -0.52290000
H        2.78890000       0.39130000      -0.80740000
H       -0.03930000      -1.50270000       1.44350000
H        1.43320000       1.11590000       2.13350000
H        0.03860000       0.49080000       3.00580000
H        1.39320000      -1.54670000       3.68540000
H        2.75070000      -0.90550000       2.72970000
H        2.84650000       1.12870000       4.24670000
