20
Properties=species:S:1:pos:R:3 gdb_41613=T pbc="F F F"
C       -0.08420000       1.47970000      -0.09670000
C        1.46170000       1.48890000       0.02220000
N        1.52810000      -0.00840000       0.18520000
C        0.01490000      -0.04060000      -0.03050000
C        0.93870000      -0.60300000      -1.03400000
C        1.18650000      -0.08980000      -2.45360000
C        1.13990000      -1.38780000      -3.27490000
O        1.64480000      -2.39090000      -2.40730000
C        1.08730000      -2.12890000      -1.12900000
H       -0.57250000       1.91070000       0.77910000
H       -0.53970000       1.90710000      -0.99530000
H        2.03000000       1.87000000      -0.83200000
H        1.83100000       1.97060000       0.92920000
H       -0.62830000      -0.68150000       0.56780000
H        0.45720000       0.65040000      -2.79160000
H        2.18440000       0.35590000      -2.52190000
H        0.10470000      -1.61820000      -3.57900000
H        1.76580000      -1.36740000      -4.17020000
H        1.75970000      -2.52120000      -0.36290000
H        0.10500000      -2.62010000      -1.02980000
