17
Properties=species:S:1:pos:R:3 gdb_12985=T pbc="F F F"
C       -0.11880000       1.52400000       0.08060000
C        0.01000000       0.02640000       0.00570000
C       -0.81250000      -0.90300000       0.84890000
N        0.60800000      -0.74110000       1.12290000
C        1.43390000      -1.83380000       0.53990000
C        1.11720000      -1.94010000      -0.96350000
C        0.44830000      -0.59610000      -1.29170000
O        0.34490000      -0.09200000      -2.38130000
H        0.84180000       2.00870000      -0.11920000
H       -0.83110000       1.87380000      -0.67210000
H       -0.46280000       1.83590000       1.06940000
H       -1.47850000      -0.46160000       1.58520000
H       -1.16970000      -1.83630000       0.41820000
H        2.48150000      -1.55890000       0.69360000
H        1.24840000      -2.75840000       1.09350000
H        2.00320000      -2.07140000      -1.58710000
H        0.43000000      -2.75600000      -1.21290000
