19
Properties=species:S:1:pos:R:3 gdb_73500=T pbc="F F F"
C        0.03730000       1.47790000       0.03940000
C        0.00600000      -0.02290000      -0.00900000
O        0.98100000      -0.58950000      -0.85600000
C        0.37930000      -1.64970000      -1.59810000
C       -0.79180000      -2.15410000      -0.73860000
C       -0.31280000      -3.01160000       0.44530000
O        0.22570000      -2.09400000       1.39960000
C       -0.39450000      -0.85120000       1.20560000
C       -1.25220000      -0.85910000      -0.03680000
H        1.02870000       1.82810000       0.34410000
H       -0.18930000       1.90720000      -0.94240000
H       -0.69430000       1.85830000       0.75870000
H        0.01490000      -1.27610000      -2.56760000
H        1.14410000      -2.41050000      -1.78380000
H       -1.57000000      -2.64380000      -1.32720000
H       -1.15330000      -3.56840000       0.88700000
H        0.47540000      -3.72240000       0.17810000
H       -0.69050000      -0.35470000       2.12490000
H       -2.26250000      -0.47600000      -0.11050000
