21
Properties=species:S:1:pos:R:3 gdb_87118=T pbc="F F F"
C        0.39860000       1.47560000      -0.06030000
C        0.01390000      -0.01040000      -0.14330000
C        0.18680000      -0.68370000       1.22170000
O       -1.36390000      -0.13000000      -0.56340000
C        0.76660000      -0.65590000      -1.31320000
O        0.42960000      -0.04460000      -2.53270000
C        2.20870000      -1.07370000      -1.24760000
C        1.12420000      -2.11650000      -1.45090000
O        0.83210000      -3.04150000      -0.44550000
H        1.43570000       1.59040000       0.26920000
H        0.29100000       1.95370000      -1.03520000
H       -0.23900000       1.99220000       0.66730000
H       -0.39060000      -0.12430000       1.96700000
H       -0.16250000      -1.71360000       1.19530000
H        1.23150000      -0.67630000       1.54740000
H       -1.88900000       0.47880000      -0.03450000
H       -0.53740000      -0.01830000      -2.53370000
H        2.84320000      -0.80610000      -2.08520000
H        2.68830000      -1.06010000      -0.27480000
H        1.00400000      -2.48970000      -2.46740000
H        1.58420000      -3.63780000      -0.36540000
