14
Properties=species:S:1:pos:R:3 gdb_2541=T pbc="F F F"
O        0.08750000       1.41050000       0.00470000
C        0.05720000       0.00320000      -0.02230000
C       -1.38110000      -0.56550000      -0.05520000
C       -1.40370000      -2.10930000      -0.15120000
O       -2.70790000      -2.63170000      -0.24200000
C       -2.11420000      -0.13120000       1.13610000
N       -2.66770000       0.19280000       2.09890000
H       -0.26040000       1.70520000       0.85400000
H        0.56590000      -0.29950000      -0.94270000
H        0.60400000      -0.43840000       0.82420000
H       -1.89650000      -0.15560000      -0.93090000
H       -0.88840000      -2.40250000      -1.07100000
H       -0.84590000      -2.53500000       0.69630000
H       -3.15470000      -2.48010000       0.59850000
