27
Properties=species:S:1:pos:R:3 gdb_122008=T pbc="F F F"
C       -0.02250000       1.55340000      -0.12930000
C        0.04040000       0.02600000      -0.04650000
C        0.68750000      -0.48250000       1.24690000
C        0.74600000      -2.01230000       1.32880000
C        1.47180000      -2.56680000       2.56750000
C        0.76940000      -2.21390000       3.88540000
C        1.63850000      -4.08140000       2.43390000
O        2.43110000      -4.56160000       3.49970000
C        2.60910000      -5.95540000       3.46750000
H        0.97960000       1.99420000      -0.08030000
H       -0.48640000       1.88550000      -1.06340000
H       -0.60610000       1.97130000       0.69880000
H       -0.97350000      -0.38750000      -0.13010000
H        0.59750000      -0.36550000      -0.90830000
H        1.70560000      -0.07590000       1.32660000
H        0.13260000      -0.08040000       2.10380000
H       -0.27680000      -2.41550000       1.29900000
H        1.24610000      -2.39090000       0.42630000
H        2.48520000      -2.14160000       2.59140000
H        1.27620000      -2.69610000       4.72420000
H        0.76160000      -1.13540000       4.06560000
H       -0.27220000      -2.55930000       3.87530000
H        0.64930000      -4.57520000       2.44170000
H        2.11410000      -4.32880000       1.46890000
H        3.11230000      -6.28330000       2.54340000
H        3.23250000      -6.22790000       4.32290000
H        1.65020000      -6.49360000       3.54110000
