19
Properties=species:S:1:pos:R:3 gdb_109990=T pbc="F F F"
O        0.22160000       1.24140000      -0.46960000
C        0.16330000      -0.16720000      -0.34880000
C       -1.23600000      -0.62230000       0.05720000
C       -2.28720000      -0.47190000      -1.08800000
O       -2.03060000       0.45860000      -2.12780000
C       -2.16860000      -1.98210000      -1.39180000
C       -1.49840000      -2.17240000       0.00900000
C       -0.37780000      -3.08350000       0.11720000
C        0.55940000      -3.83380000       0.19380000
H       -0.47940000       1.48430000      -1.08870000
H        0.47940000      -0.66950000      -1.27950000
H        0.89020000      -0.45650000       0.41600000
H       -1.50050000      -0.13690000       0.99970000
H       -3.27210000      -0.20950000      -0.69220000
H       -1.40590000       0.05850000      -2.74170000
H       -3.08260000      -2.54210000      -1.59670000
H       -1.44890000      -2.17640000      -2.19350000
H       -2.25700000      -2.43670000       0.75240000
H        1.38410000      -4.49870000       0.26710000
