19
Properties=species:S:1:pos:R:3 gdb_115526=T pbc="F F F"
C       -0.27390000       1.62180000       0.02320000
C       -0.01320000       0.11770000       0.07200000
O        1.16970000      -0.22930000      -0.70300000
C        1.76360000      -0.93820000       0.40740000
C        0.63090000      -0.51100000       1.35730000
C        1.02890000       0.41610000       2.49010000
O        1.73390000      -0.38200000       3.43070000
C       -1.18920000      -0.62020000      -0.39140000
C       -2.16100000      -1.22400000      -0.76090000
H        0.60970000       2.17890000       0.34180000
H       -0.50940000       1.91060000      -1.00470000
H       -1.12340000       1.89200000       0.65730000
H        1.83270000      -2.01470000       0.21440000
H        2.75980000      -0.55270000       0.65250000
H        0.05060000      -1.33810000       1.76790000
H        1.66310000       1.23300000       2.11380000
H        0.13250000       0.87130000       2.94070000
H        2.05680000       0.19130000       4.13200000
H       -3.01420000      -1.76120000      -1.09480000
