18
Properties=species:S:1:pos:R:3 gdb_57017=T pbc="F F F"
C       -0.11870000       1.58440000      -0.00090000
C       -0.05910000       0.04250000       0.00060000
C       -1.40550000      -0.52450000       0.00920000
C       -2.52850000      -0.95090000       0.00240000
C        0.75200000      -0.47520000      -1.20260000
C        2.26820000      -0.17540000      -1.22090000
O        2.56010000      -1.60500000      -1.22560000
C        1.21520000      -1.92370000      -1.18060000
N        0.64640000      -3.03780000      -1.13310000
H        0.88720000       2.01420000       0.03420000
H       -0.62090000       1.94860000      -0.90210000
H       -0.67660000       1.94520000       0.86630000
H        0.45810000      -0.28210000       0.91440000
H       -3.50940000      -1.35770000       0.00070000
H        0.24070000      -0.21390000      -2.13280000
H        2.66340000       0.31100000      -2.11550000
H        2.67110000       0.29930000      -0.32150000
H        1.32550000      -3.80120000      -1.12500000
