14
Properties=species:S:1:pos:R:3 gdb_49778=T pbc="F F F"
O       -0.86490000       0.97010000       0.53090000
C        0.19440000       0.87060000      -0.02490000
C        1.25610000       1.97120000      -0.02680000
N        2.57910000       1.38550000       0.22720000
C        3.32030000       1.74470000      -0.73570000
O        2.82670000       2.52490000      -1.72230000
C        1.41150000       2.70330000      -1.41530000
C        0.59700000       2.17510000      -2.49930000
C       -0.10020000       1.74460000      -3.37750000
H        0.49720000      -0.04680000      -0.57220000
H        0.99170000       2.68170000       0.76070000
H        4.36630000       1.48460000      -0.85430000
H        1.24110000       3.77780000      -1.30960000
H       -0.71700000       1.36390000      -4.15470000
