16
Properties=species:S:1:pos:R:3 gdb_90059=T pbc="F F F"
O        0.34200000       1.31660000      -0.35260000
C        0.08500000      -0.01050000      -0.03420000
C        0.17470000      -0.42620000       1.50090000
C       -1.35860000      -0.41830000       1.48650000
N       -1.90820000       1.00450000       1.25650000
C       -2.72250000       0.17930000       0.30590000
C       -1.42440000      -0.55650000      -0.06910000
C       -2.84080000      -0.90790000       1.48540000
O       -3.60610000      -1.63900000       2.01440000
H       -0.31390000       1.82490000       0.14690000
H        0.71950000      -0.62570000      -0.67600000
H        0.59500000      -1.42650000       1.62820000
H        0.66590000       0.27880000       2.17390000
H       -2.45160000       1.32150000       2.06170000
H       -3.51700000       0.60350000      -0.30880000
H       -1.51940000      -1.55200000      -0.50330000
