20
Properties=species:S:1:pos:R:3 gdb_101597=T pbc="F F F"
C        0.09040000       1.32610000      -0.18190000
O        0.19200000      -0.08710000      -0.00120000
C        0.57880000      -0.50180000       1.22480000
N        0.85920000       0.32080000       2.14710000
C        0.58560000      -2.02000000       1.25990000
C        1.49020000      -2.63890000       2.32400000
O        1.09830000      -2.28700000       3.66100000
C        1.56050000      -4.16480000       2.22070000
O        2.36840000      -4.70310000       3.24130000
H        1.05840000       1.80840000      -0.02110000
H       -0.24390000       1.46930000      -1.21040000
H       -0.62790000       1.75740000       0.52090000
H        1.10600000      -0.17770000       3.00020000
H       -0.44780000      -2.37000000       1.40050000
H        0.88640000      -2.38180000       0.27100000
H        2.50520000      -2.23760000       2.23030000
H        0.15840000      -2.48560000       3.75600000
H        0.53320000      -4.57440000       2.25560000
H        1.99690000      -4.46210000       1.26080000
H        2.14240000      -4.20780000       4.03940000
