15
Properties=species:S:1:pos:R:3 gdb_126079=T pbc="F F F"
C       -0.51770000       1.51420000      -0.03340000
C        0.21720000       0.20200000       0.02240000
O        1.14160000       0.08930000      -1.12030000
C        2.21020000      -0.50680000      -0.53860000
C        2.14970000      -0.53090000       0.81740000
O        0.98670000       0.09380000       1.23440000
C        3.35410000      -1.10360000       1.24250000
N        4.10740000      -1.42130000       0.17550000
N        3.38370000      -1.03190000      -0.92080000
H        0.19350000       2.34200000       0.01320000
H       -1.09310000       1.58100000      -0.96010000
H       -1.20440000       1.58290000       0.81410000
H       -0.45430000      -0.66820000      -0.04100000
H        3.72480000      -1.30980000       2.23390000
H        3.75280000      -1.19900000      -1.83990000
