14
Properties=species:S:1:pos:R:3 gdb_97532=T pbc="F F F"
O        0.14340000       1.37860000      -0.40690000
C        0.06370000       0.06300000       0.11450000
C       -1.29310000      -0.48870000       0.09640000
C       -2.42140000      -0.90380000       0.09880000
C       -3.79860000      -1.41440000       0.07870000
C       -3.85200000      -2.88000000      -0.01160000
C       -3.90230000      -4.07430000      -0.10270000
C       -4.55830000      -0.93190000       1.25480000
N       -5.15800000      -0.53930000       2.15930000
H       -0.44720000       1.93590000       0.11090000
H        0.71870000      -0.55020000      -0.51380000
H        0.46040000       0.00470000       1.14000000
H       -4.30790000      -1.00020000      -0.80550000
H       -3.94350000      -5.13340000      -0.17700000
