27
Properties=species:S:1:pos:R:3 gdb_121912=T pbc="F F F"
C       -0.00490000       1.63900000       0.08100000
C        0.00670000       0.10940000       0.01030000
C       -1.39770000      -0.50240000       0.02110000
C       -1.39950000      -2.03420000      -0.03170000
C       -2.81070000      -2.63300000      -0.09980000
O       -3.49630000      -2.21000000      -1.28060000
C       -2.85360000      -4.17010000       0.06950000
C       -4.30420000      -4.64820000       0.21740000
C       -2.14950000      -4.91930000      -1.07240000
H        1.00970000       2.04950000       0.06450000
H       -0.55290000       2.06910000      -0.76480000
H       -0.49070000       1.98870000       0.99880000
H        0.53500000      -0.21100000      -0.89790000
H        0.58620000      -0.29220000       0.85260000
H       -1.92990000      -0.17350000       0.92480000
H       -1.97790000      -0.11830000      -0.82630000
H       -0.82040000      -2.36910000      -0.90480000
H       -0.88160000      -2.43820000       0.84850000
H       -3.40310000      -2.19950000       0.71710000
H       -2.96240000      -2.47500000      -2.03730000
H       -2.31830000      -4.39500000       1.00270000
H       -4.88670000      -4.37240000      -0.66670000
H       -4.35330000      -5.73520000       0.33810000
H       -4.78590000      -4.19100000       1.08850000
H       -2.64090000      -4.72700000      -2.03390000
H       -1.09510000      -4.64260000      -1.16660000
H       -2.19170000      -6.00000000      -0.90530000
