16
Properties=species:S:1:pos:R:3 gdb_51763=T pbc="F F F"
O       -0.09550000      -0.21660000      -0.06480000
C       -0.07600000       0.98820000       0.05740000
N        1.04020000       1.76950000      -0.03200000
C        2.35610000       1.22730000      -0.18290000
C        3.23790000       1.67920000      -1.36790000
O        4.33530000       1.98630000      -0.48000000
C        3.51100000       1.81990000       0.69660000
C        3.20180000       3.07460000       1.36670000
C        2.90630000       4.11220000       1.89890000
H       -0.98330000       1.59360000       0.24760000
H        0.95600000       2.75580000       0.16750000
H        2.27490000       0.14520000      -0.09340000
H        3.50620000       0.91590000      -2.10480000
H        2.86280000       2.57250000      -1.88430000
H        3.96540000       1.11450000       1.40140000
H        2.68060000       5.02790000       2.38860000
