14
Properties=species:S:1:pos:R:3 gdb_72320=T pbc="F F F"
O       -0.01810000       1.34110000       0.02710000
C       -0.05790000      -0.01630000      -0.12820000
C        0.84920000      -0.76230000      -1.14320000
N        0.55860000      -2.19550000      -0.84400000
C       -0.51450000      -2.10470000      -0.17830000
O       -0.62010000      -2.41630000       1.18120000
C       -0.72420000      -0.92380000       1.23480000
C       -1.32560000      -0.74010000      -0.07830000
O       -2.54890000      -0.37750000      -0.57850000
H        0.88460000       1.60360000       0.24190000
H        0.64840000      -0.42580000      -2.17120000
H        1.91930000      -0.62980000      -0.94630000
H       -0.81700000      -0.47900000       2.21820000
H       -3.22860000      -0.90940000      -0.14760000
