15
Properties=species:S:1:pos:R:3 gdb_126403=T pbc="F F F"
C        0.06750000       1.51930000       0.12170000
C       -0.09360000       0.00960000      -0.12620000
C        0.66010000      -0.45330000      -1.32660000
N        0.11530000      -0.88940000      -2.44400000
N        1.19580000      -1.15840000      -3.19470000
C        1.07330000      -1.67100000      -4.51620000
O        2.00310000      -1.92350000      -5.21660000
N        2.35850000      -0.89970000      -2.56760000
N        2.03670000      -0.45730000      -1.39870000
H        1.12140000       1.78110000       0.24630000
H       -0.33150000       2.09890000      -0.71590000
H       -0.47000000       1.81340000       1.02720000
H        0.27370000      -0.54470000       0.74450000
H       -1.14670000      -0.25000000      -0.26140000
H        0.00720000      -1.78730000      -4.76510000
