18
Properties=species:S:1:pos:R:3 gdb_11545=T pbc="F F F"
C        0.02720000       1.30110000      -0.77940000
N        0.22320000      -0.11520000      -1.00050000
C        0.89350000      -0.90910000      -0.12820000
O        1.40240000      -0.52730000       0.91160000
C        0.93830000      -2.38760000      -0.53170000
N        0.64100000      -2.60560000      -1.94280000
C        1.79040000      -2.74500000      -2.83650000
C        0.95740000      -3.92530000      -2.47890000
H        0.53830000       1.56100000       0.14880000
H        0.44790000       1.89490000      -1.59870000
H       -1.03620000       1.54920000      -0.68150000
H       -0.15600000      -0.57110000      -1.81730000
H        1.91980000      -2.77810000      -0.22310000
H        0.18180000      -2.90940000       0.06720000
H        1.69220000      -2.27730000      -3.81160000
H        2.78310000      -2.68010000      -2.39520000
H        1.39350000      -4.65530000      -1.79980000
H        0.24150000      -4.33150000      -3.18750000
