13
Properties=species:S:1:pos:R:3 gdb_8753=T pbc="F F F"
C       -0.04500000       1.49060000       0.02470000
N       -0.00470000       0.02830000       0.00360000
C       -0.09500000      -0.64790000       1.22620000
N       -0.20770000       0.01050000       2.30450000
C        0.11660000      -0.72540000      -1.14300000
O        0.15210000      -1.93550000      -1.18470000
C        0.20720000       0.04620000      -2.39630000
N        0.28430000       0.57010000      -3.42350000
H        0.03450000       1.87310000      -0.99150000
H       -0.98140000       1.82500000       0.47600000
H        0.77910000       1.87140000       0.63130000
H       -0.05570000      -1.72970000       1.10480000
H       -0.26130000      -0.62340000       3.10000000
