17
Properties=species:S:1:pos:R:3 gdb_42320=T pbc="F F F"
O       -0.21150000      -0.12650000      -0.17880000
C       -0.17150000       1.07520000      -0.08370000
C        1.09690000       1.79890000      -0.31500000
N        2.07660000       2.38540000      -0.49830000
C       -1.35360000       1.95780000       0.28840000
C       -1.76890000       2.88010000      -0.89850000
C       -2.88730000       2.07340000      -1.57410000
C       -3.58990000       1.43360000      -0.36790000
N       -2.52990000       1.16530000       0.62650000
H       -1.00860000       2.57510000       1.13250000
H       -2.15870000       3.81890000      -0.49480000
H       -0.93410000       3.12890000      -1.55810000
H       -3.54740000       2.69580000      -2.18340000
H       -2.45980000       1.29900000      -2.22090000
H       -4.32360000       2.13160000       0.05660000
H       -4.12400000       0.51230000      -0.61470000
H       -2.27580000       0.18350000       0.62210000
