18
Properties=species:S:1:pos:R:3 gdb_104384=T pbc="F F F"
O       -0.11520000       1.44840000      -0.41240000
C        0.03510000       0.07630000      -0.09900000
C       -1.34770000      -0.55840000       0.06790000
O       -2.13870000      -0.28760000      -1.08260000
C       -1.39830000      -2.06090000       0.33900000
C       -2.71290000      -2.20050000       1.11560000
O       -2.84950000      -0.96280000       1.85400000
C       -2.07730000      -0.00440000       1.29700000
N       -1.97380000       1.19040000       1.70760000
H       -0.58870000       1.83350000       0.34800000
H        0.55100000      -0.39300000      -0.94340000
H        0.63770000      -0.07920000       0.80800000
H       -1.91970000       0.62670000      -1.31890000
H       -1.38480000      -2.63700000      -0.58690000
H       -0.55110000      -2.36190000       0.96390000
H       -3.57190000      -2.29980000       0.44540000
H       -2.72290000      -3.01580000       1.84110000
H       -2.56750000       1.37120000       2.51730000
