19
Properties=species:S:1:pos:R:3 gdb_104642=T pbc="F F F"
O        0.02440000       1.06450000      -0.58410000
C       -0.19290000      -0.27000000      -0.17680000
C       -1.67480000      -0.55140000       0.14620000
C       -2.56860000      -0.54340000      -1.14140000
C       -2.50160000      -2.09600000      -1.17310000
O       -1.50580000      -2.62140000      -2.03460000
C       -1.96450000      -2.08630000       0.27580000
C       -2.10920000       0.30280000       1.23800000
C       -2.43480000       1.03940000       2.13330000
H       -0.28910000       1.63270000       0.13000000
H        0.11030000      -0.90770000      -1.01060000
H        0.41730000      -0.53570000       0.70080000
H       -3.57650000      -0.17220000      -0.94450000
H       -2.14500000      -0.01090000      -1.99650000
H       -3.45900000      -2.61020000      -1.32600000
H       -1.75680000      -2.41390000      -2.94090000
H       -1.09740000      -2.72710000       0.45300000
H       -2.73620000      -2.30160000       1.01630000
H       -2.74350000       1.67200000       2.92860000
