21
Properties=species:S:1:pos:R:3 gdb_97845=T pbc="F F F"
C       -0.29710000       1.66300000      -0.09130000
C        0.03690000       0.16990000       0.07990000
C        0.78320000      -0.38650000      -1.04330000
C        1.40570000      -0.82190000      -1.97950000
C        2.14920000      -1.34610000      -3.11190000
O        3.55130000      -1.59730000      -2.82510000
C        3.43490000      -2.98900000      -3.18270000
C        1.93530000      -2.84430000      -3.51630000
C        0.95680000      -3.67870000      -2.70720000
H        0.61610000       2.25570000      -0.19080000
H       -0.90350000       1.82540000      -0.98650000
H       -0.85520000       2.03050000       0.77490000
H        0.61550000       0.02550000       1.00140000
H       -0.89060000      -0.40130000       0.21680000
H        2.05610000      -0.65520000      -3.96080000
H        4.09250000      -3.25310000      -4.02000000
H        3.65910000      -3.64800000      -2.33330000
H        1.72480000      -2.94050000      -4.58440000
H        1.14690000      -3.58030000      -1.63450000
H       -0.07630000      -3.36780000      -2.89180000
H        1.04340000      -4.73710000      -2.97580000
