13
Properties=species:S:1:pos:R:3 gdb_5477=T pbc="F F F"
N        0.09110000       1.39370000       0.13610000
C        0.00340000       0.02640000       0.04250000
C       -1.13480000      -0.78710000       0.01450000
N       -0.62110000      -2.08270000      -0.02010000
C        0.71630000      -1.98890000      -0.00970000
N        1.13790000      -0.73270000       0.02580000
C       -2.54560000      -0.55220000       0.01920000
O       -3.38440000      -1.44050000      -0.01150000
H        0.99790000       1.75650000      -0.11900000
H       -0.67910000       1.92820000      -0.23320000
H       -1.20550000      -2.90300000      -0.04660000
H        1.36310000      -2.85360000      -0.03180000
H       -2.84320000       0.51860000       0.05470000
