20
Properties=species:S:1:pos:R:3 gdb_126753=T pbc="F F F"
C       -0.01510000       1.51200000       0.00510000
C        0.02230000      -0.01630000      -0.03120000
N        0.69490000      -0.52970000      -1.21320000
N        0.05370000      -0.73670000      -2.35890000
C        1.01620000      -1.11200000      -3.20620000
C        0.72860000      -1.46730000      -4.62820000
C        2.24420000      -1.10610000      -2.51010000
C        3.61470000      -1.45280000      -2.99220000
N        2.00860000      -0.72790000      -1.25050000
H        0.99860000       1.92160000       0.00790000
H       -0.54840000       1.90450000      -0.86500000
H       -0.52900000       1.85260000       0.90910000
H        0.55940000      -0.41540000       0.83190000
H       -0.98750000      -0.43240000      -0.03980000
H        1.29790000      -0.83870000      -5.32240000
H        0.99430000      -2.50820000      -4.84590000
H       -0.33440000      -1.33540000      -4.83960000
H        3.91560000      -0.82130000      -3.83590000
H        4.34020000      -1.31780000      -2.18750000
H        3.67140000      -2.49290000      -3.33340000
