15
Properties=species:S:1:pos:R:3 gdb_127325=T pbc="F F F"
C        0.01730000       1.43690000       0.04510000
N       -0.03140000      -0.00950000      -0.00970000
C       -0.02480000      -0.81860000      -1.13990000
C        0.01620000      -2.12690000      -0.77110000
N        0.04650000      -2.13230000       0.62430000
C        0.08870000      -2.87270000       1.78430000
N        0.09520000      -2.06670000       2.82220000
N        0.05820000      -0.75160000       2.38910000
C        0.02620000      -0.83840000       1.07930000
H        1.04830000       1.80710000       0.07480000
H       -0.48680000       1.85120000      -0.83060000
H       -0.50010000       1.77310000       0.94590000
H       -0.05960000      -0.38850000      -2.12750000
H        0.01560000      -3.02220000      -1.36620000
H        0.11210000      -3.94890000       1.81530000
