18
Properties=species:S:1:pos:R:3 gdb_45252=T pbc="F F F"
O       -0.05860000      -0.04620000       0.17700000
C       -0.09420000       1.14740000       0.07410000
C       -1.19610000       2.22830000      -0.03470000
C       -0.04410000       3.24290000       0.20110000
C        0.20750000       3.83580000       1.61010000
C        1.59560000       3.30750000       2.01420000
C        1.72060000       1.86890000       2.45930000
C        2.01480000       2.23320000       1.02570000
N        0.92000000       2.11540000       0.09720000
H       -1.69880000       2.28570000      -1.00190000
H       -1.94310000       2.16640000       0.75960000
H        0.08370000       3.99280000      -0.58490000
H        0.19310000       4.92870000       1.59400000
H       -0.56270000       3.51390000       2.31990000
H        2.32660000       4.01720000       2.38370000
H        2.56480000       1.61070000       3.08990000
H        0.82170000       1.29570000       2.66000000
H        3.02230000       2.16780000       0.63150000
