22
Properties=species:S:1:pos:R:3 gdb_104205=T pbc="F F F"
C       -0.43950000       1.54760000       0.22810000
C       -0.04800000       0.08420000       0.05640000
C       -1.24430000      -0.75760000      -0.39110000
O       -1.68660000      -0.27290000      -1.65150000
C        1.21050000      -0.21200000      -0.82550000
C        1.74870000      -1.18430000       0.26470000
C        0.70190000      -0.60970000       1.22020000
C        0.92080000      -0.07260000       2.57980000
N        0.15040000      -1.31870000       2.37490000
H        0.42400000       2.15490000       0.51540000
H       -0.84900000       1.94370000      -0.70520000
H       -1.20830000       1.66710000       1.00220000
H       -0.95220000      -1.81690000      -0.45530000
H       -2.04830000      -0.68430000       0.36110000
H       -2.42330000      -0.81750000      -1.94270000
H        1.00350000      -0.63060000      -1.81160000
H        1.84000000       0.67300000      -0.94520000
H        1.56620000      -2.23750000       0.03340000
H        2.79530000      -1.07090000       0.55730000
H        1.88390000      -0.20940000       3.06570000
H        0.38870000       0.82710000       2.87850000
H       -0.84430000      -1.12370000       2.47030000
