15
Properties=species:S:1:pos:R:3 gdb_15031=T pbc="F F F"
O        0.29010000       0.00650000       0.36280000
C        0.15810000       1.15490000       0.04470000
C        1.34830000       2.11410000      -0.12700000
C        1.18340000       2.92080000      -1.33720000
N        1.01500000       3.55280000      -2.29000000
C        1.45670000       2.99150000       1.12200000
C        2.07450000       2.41120000       2.36790000
C        2.80800000       3.47090000       1.58540000
H       -0.83850000       1.62190000      -0.10380000
H        2.24600000       1.49420000      -0.22080000
H        0.62270000       3.67410000       1.25100000
H        1.63660000       2.67950000       3.32230000
H        2.44310000       1.39230000       2.31940000
H        3.67690000       3.16990000       1.01010000
H        2.87320000       4.47080000       1.99830000
