17
Properties=species:S:1:pos:R:3 gdb_124654=T pbc="F F F"
C        0.10370000       1.50520000       0.02200000
C       -0.00330000      -0.01550000       0.01830000
C       -1.43220000      -0.52050000      -0.11000000
O        0.70420000      -0.56200000      -1.13100000
C        2.02050000      -0.66890000      -1.04450000
N        2.74250000      -1.14830000      -2.05510000
N        3.96070000      -1.08350000      -1.52040000
N        4.01610000      -0.60930000      -0.29350000
N        2.77510000      -0.33360000       0.03550000
H        1.14510000       1.82170000       0.11080000
H       -0.31990000       1.92060000      -0.89770000
H       -0.44950000       1.91440000       0.87320000
H        0.46510000      -0.42170000       0.92030000
H       -1.88890000      -0.15190000      -1.03360000
H       -1.45810000      -1.61300000      -0.12420000
H       -2.02980000      -0.16870000       0.73580000
H        4.78630000      -1.37660000      -2.02030000
