19
Properties=species:S:1:pos:R:3 gdb_87593=T pbc="F F F"
C       -0.10420000       1.51160000      -0.10780000
C       -0.00630000       0.01390000       0.05340000
N        1.32180000      -0.59460000      -0.11840000
C        0.66060000      -0.65370000       1.20780000
C        1.30890000       0.02780000       2.36780000
C        1.26030000      -0.72750000       3.47020000
C        0.52950000      -2.00260000       3.20480000
N       -0.89750000      -1.77740000       2.81750000
C        0.13630000      -1.95550000       1.77210000
H        0.79510000       2.00560000       0.26720000
H       -0.21360000       1.77720000      -1.16500000
H       -0.97140000       1.90460000       0.43290000
H       -0.85650000      -0.53550000      -0.35120000
H        1.25000000      -1.49960000      -0.57960000
H        1.74000000       1.01780000       2.29390000
H        1.65470000      -0.45720000       4.44180000
H        0.78850000      -2.92230000       3.71810000
H       -1.39870000      -2.66020000       2.91540000
H        0.10510000      -2.83950000       1.14120000
