21
Properties=species:S:1:pos:R:3 gdb_38768=T pbc="F F F"
C        0.00020000       1.54520000      -0.03220000
C        1.30150000       0.78100000      -0.00280000
C        2.15730000       0.78120000       1.25110000
C        2.69660000      -0.60230000       1.56710000
C        2.68310000      -1.11490000       2.98670000
C        1.72410000      -1.68850000       1.95900000
C        0.25750000      -1.44440000       2.04900000
C       -0.48410000      -0.70920000       1.21460000
C       -0.00670000       0.02770000       0.01140000
H       -0.28350000       2.07420000       0.87250000
H       -0.30570000       2.03520000      -0.95040000
H        1.85780000       0.73890000      -0.93590000
H        2.98280000       1.49640000       1.14770000
H        1.55600000       1.13290000       2.09540000
H        3.53110000      -0.92020000       0.94700000
H        3.50050000      -1.73860000       3.33260000
H        2.27020000      -0.45780000       3.74610000
H        1.97840000      -2.69450000       1.62810000
H       -0.24960000      -1.94660000       2.87320000
H       -1.55640000      -0.65100000       1.40280000
H       -0.29380000      -0.44170000      -0.92870000
