11
Properties=species:S:1:pos:R:3 gdb_25428=T pbc="F F F"
O       -0.10630000      -0.00220000       0.00030000
C       -0.01610000       1.19810000       0.00950000
C        1.25500000       1.94250000       0.00080000
C        1.41820000       3.30000000       0.01040000
O        2.73810000       3.57500000      -0.00320000
C        3.33370000       2.34230000      -0.02030000
N        2.50830000       1.34740000      -0.01920000
C        4.75310000       2.30850000      -0.03760000
N        5.90890000       2.29070000      -0.05160000
H       -0.91230000       1.85620000       0.02580000
H        0.74570000       4.14170000       0.02550000
