16
Properties=species:S:1:pos:R:3 gdb_13294=T pbc="F F F"
C       -0.03880000      -1.17700000       0.39190000
C       -0.01700000      -0.00810000       0.11510000
C        0.02640000       1.41650000      -0.21560000
C        1.41360000       1.99820000      -0.14380000
C        2.09280000       2.62830000      -1.09640000
C        3.43090000       3.06330000      -0.57230000
O        3.46570000       2.61780000       0.78150000
C        2.24950000       1.95570000       1.11030000
H       -0.06340000      -2.21090000       0.63280000
H       -0.38630000       1.57610000      -1.21830000
H       -0.63410000       1.95820000       0.47770000
H        1.76100000       2.81630000      -2.11010000
H        4.26750000       2.61800000      -1.13420000
H        3.56380000       4.15660000      -0.61100000
H        1.75570000       2.46820000       1.95290000
H        2.45420000       0.92450000       1.43520000
