20
Properties=species:S:1:pos:R:3 gdb_73317=T pbc="F F F"
C       -0.02070000       1.57660000      -0.04510000
C        0.06260000       0.06800000       0.00750000
C        0.56190000      -0.69100000      -1.26750000
C        0.51560000      -2.21440000      -0.84360000
C        0.00380000      -1.96900000       0.56560000
C       -0.46510000      -2.36970000       1.97670000
N       -0.59570000      -0.83940000       2.05460000
C        0.67670000      -0.71820000       1.17830000
C       -1.04760000      -0.83450000       0.57220000
H        0.96020000       2.02050000      -0.25040000
H       -0.70380000       1.90820000      -0.83550000
H       -0.38230000       1.97880000       0.90600000
H       -0.08610000      -0.48840000      -2.12660000
H        1.57380000      -0.37650000      -1.54330000
H       -0.16670000      -2.79820000      -1.46770000
H        1.50180000      -2.68570000      -0.88130000
H       -1.42120000      -2.89420000       2.07560000
H        0.27500000      -2.77980000       2.67170000
H        1.66870000      -0.65460000       1.63230000
H       -2.10490000      -0.90910000       0.30600000
