23
Properties=species:S:1:pos:R:3 gdb_118780=T pbc="F F F"
C       -0.01190000       1.49990000      -0.22510000
C       -0.14820000      -0.01350000      -0.20020000
O        0.93510000      -0.56450000      -0.93480000
C        0.87320000      -1.95010000      -1.14250000
C        1.10710000      -2.79510000       0.09070000
C       -0.08380000      -2.43480000      -2.22540000
C        1.41590000      -2.39180000      -2.47400000
C        1.99430000      -1.38860000      -3.44470000
O        2.10500000      -3.61810000      -2.44070000
H        0.94270000       1.80570000       0.21220000
H       -0.05220000       1.87460000      -1.25210000
H       -0.82060000       1.96490000       0.34690000
H       -0.13740000      -0.37880000       0.83740000
H       -1.10490000      -0.32680000      -0.64600000
H        0.27470000      -2.71040000       0.79700000
H        1.22260000      -3.84370000      -0.18410000
H        2.02150000      -2.46970000       0.59740000
H       -0.54290000      -3.40920000      -2.09400000
H       -0.70030000      -1.69330000      -2.72270000
H        1.49680000      -0.42270000      -3.35370000
H        3.06180000      -1.24820000      -3.24800000
H        1.88190000      -1.74440000      -4.47640000
H        1.94630000      -4.06260000      -3.28070000
