19
Properties=species:S:1:pos:R:3 gdb_80612=T pbc="F F F"
C       -0.08430000       1.52330000       0.03190000
C        0.02910000       0.00500000       0.01680000
O       -1.23990000      -0.60780000      -0.18460000
C        0.99260000      -0.52940000      -1.07030000
C        1.14330000      -2.02230000      -0.72050000
C        1.88330000      -1.36250000       0.45610000
O        2.30270000      -0.28210000      -0.45520000
C        0.80420000      -0.61080000       1.25660000
O        1.36230000       0.32370000       2.15180000
H        0.89980000       1.99480000      -0.02450000
H       -0.67530000       1.85190000      -0.82860000
H       -0.56710000       1.87400000       0.94980000
H       -1.85810000      -0.22200000       0.44470000
H        0.89430000      -0.14250000      -2.08440000
H        0.24270000      -2.60500000      -0.52860000
H        1.83120000      -2.53320000      -1.39470000
H        2.70150000      -1.82510000       1.00830000
H        0.14570000      -1.26100000       1.83820000
H        2.05800000       0.78050000       1.66160000
