17
Properties=species:S:1:pos:R:3 gdb_33847=T pbc="F F F"
C       -0.02970000      -1.16060000      -0.02460000
C       -0.01130000       0.04160000       0.00080000
C        0.01820000       1.47220000       0.01370000
C        0.41350000       2.26480000      -1.21740000
C        1.29170000       2.31450000       0.00940000
C        1.08260000       3.36720000       1.07230000
C       -0.00440000       4.41370000       0.90720000
C       -0.30170000       3.11960000       1.61610000
O       -0.91200000       2.07750000       0.89160000
H       -0.04800000      -2.22220000      -0.04040000
H        0.78450000       1.69330000      -2.06080000
H       -0.20250000       3.11540000      -1.48190000
H        2.26090000       1.83400000      -0.03330000
H        1.92120000       3.58000000       1.72360000
H        0.08040000       5.30080000       1.52640000
H       -0.43980000       4.59240000      -0.06840000
H       -0.55660000       3.10710000       2.67030000
