18
Properties=species:S:1:pos:R:3 gdb_51741=T pbc="F F F"
O       -0.59120000       0.32980000      -0.47470000
C       -0.32040000       1.45590000      -0.18810000
O        0.94790000       1.91180000      -0.13850000
C        1.17530000       3.26970000       0.22130000
C        2.07440000       3.53450000       1.45380000
C        2.79390000       4.65480000       0.64170000
C        2.19290000       4.03540000      -0.62500000
C        2.89340000       3.48580000      -1.80400000
N        2.01950000       4.67390000      -1.91810000
H       -1.06580000       2.23670000       0.06070000
H        0.21560000       3.79940000       0.28910000
H        1.57370000       3.81450000       2.38190000
H        2.72600000       2.67730000       1.63540000
H        2.39030000       5.65030000       0.84520000
H        3.88250000       4.69260000       0.70580000
H        3.95240000       3.68540000      -1.94310000
H        2.54520000       2.53630000      -2.20040000
H        1.12590000       4.41360000      -2.33080000
