20
Properties=species:S:1:pos:R:3 gdb_76809=T pbc="F F F"
C       -0.20670000       1.64240000      -0.13150000
C       -0.07420000       0.12360000      -0.00230000
C        0.91290000      -0.61630000      -1.02960000
O        1.48510000       0.11520000      -2.08030000
C        1.82870000      -0.78090000       0.18670000
C        2.51300000      -1.62290000       1.30190000
C        1.92330000      -0.28810000       1.93020000
C        2.55970000       0.48190000       0.76330000
N        0.66190000      -0.61750000       1.11680000
H        0.65980000       2.10920000      -0.60250000
H       -1.07910000       1.88080000      -0.75070000
H       -0.36960000       2.10110000       0.84870000
H       -1.08060000      -0.30450000      -0.00680000
H        0.47780000      -1.56310000      -1.37190000
H        0.88140000       0.10360000      -2.82930000
H        1.98880000      -2.53750000       1.57790000
H        3.60100000      -1.72140000       1.30490000
H        1.89110000      -0.03110000       2.99210000
H        3.65190000       0.49010000       0.70530000
H        2.14880000       1.45970000       0.53630000
