15
Properties=species:S:1:pos:R:3 gdb_133816=T pbc="F F F"
N        1.40970000      -0.59020000      -0.03280000
C        1.80280000       0.62160000      -0.46260000
C        0.69890000       1.57760000      -0.14320000
O       -0.47880000       1.39860000      -1.03840000
C       -1.33780000       0.98090000       0.11030000
C       -0.08930000       0.90920000       0.97230000
C        0.26330000      -0.57600000       0.70070000
N       -0.82590000      -1.31220000       0.26370000
C       -1.77910000      -0.46300000       0.00980000
H        1.80290000      -1.46050000      -0.37100000
H        2.80270000       0.80720000      -0.82360000
H        0.99570000       2.62450000      -0.05930000
H       -2.12160000       1.71490000       0.31170000
H       -0.06120000       1.21780000       2.01880000
H       -2.76480000      -0.79870000      -0.29860000
