14
Properties=species:S:1:pos:R:3 gdb_129711=T pbc="F F F"
N        0.17890000       1.41870000      -0.10040000
C       -0.00430000       0.02860000      -0.04400000
C       -1.11910000      -0.78880000      -0.05150000
O       -2.39180000      -0.31140000      -0.07230000
C       -0.61780000      -2.11990000      -0.02250000
C       -1.40150000      -3.35180000      -0.01070000
O       -0.97360000      -4.48030000       0.03110000
N        0.72960000      -2.11700000       0.00500000
N        1.05720000      -0.83260000      -0.02090000
H        0.20450000       1.84400000       0.82210000
H       -0.57810000       1.85500000      -0.61510000
H       -3.00880000      -1.04220000      -0.17560000
H       -2.50660000      -3.17110000      -0.04430000
H        2.02890000      -0.56300000      -0.03230000
