16
Properties=species:S:1:pos:R:3 gdb_24407=T pbc="F F F"
C        0.04040000       1.48620000       0.11400000
O        1.36690000       2.06850000       0.02720000
C        2.13900000       1.41280000      -0.85790000
C        2.02490000       0.09120000      -1.24270000
C        3.13930000      -0.16720000      -2.10430000
C        3.87180000       0.98790000      -2.19600000
N        3.24870000       1.95830000      -1.41510000
C        0.97660000      -0.68200000      -0.61230000
C        0.04660000      -0.02480000       0.09890000
H       -0.38060000       1.88350000       1.04020000
H       -0.55300000       1.88610000      -0.72740000
H        3.36870000      -1.09850000      -2.59960000
H        4.76140000       1.22560000      -2.75440000
H        3.54870000       2.90980000      -1.29220000
H        0.98640000      -1.76610000      -0.66750000
H       -0.73740000      -0.53610000       0.64540000
