18
Properties=species:S:1:pos:R:3 gdb_99355=T pbc="F F F"
C        0.03610000       1.11680000      -0.46920000
O       -0.13280000      -0.06560000       0.31610000
C       -1.30970000      -0.71150000       0.11710000
O       -2.17200000      -0.35100000      -0.65430000
N       -1.37990000      -1.81120000       0.91640000
C       -2.50060000      -2.72580000       0.84410000
C       -2.40880000      -3.70150000      -0.35330000
C       -3.51980000      -4.64220000      -0.37790000
C       -4.45010000      -5.40310000      -0.35780000
H        1.02190000       1.50450000      -0.21030000
H       -0.01380000       0.88670000      -1.53660000
H       -0.73540000       1.85460000      -0.23400000
H       -0.56150000      -2.05350000       1.44910000
H       -2.54890000      -3.28820000       1.78000000
H       -3.41830000      -2.14010000       0.75500000
H       -2.39210000      -3.10810000      -1.27420000
H       -1.45680000      -4.24520000      -0.30550000
H       -5.26860000      -6.07940000      -0.35950000
