22
Properties=species:S:1:pos:R:3 gdb_78035=T pbc="F F F"
C       -0.17340000       1.81550000       0.75640000
C       -0.50190000       0.32290000       0.71920000
O       -0.34500000      -0.22030000      -0.60010000
C        0.90290000      -0.89890000      -0.70490000
C        1.33880000      -1.26100000       0.70750000
C        2.80080000      -1.53210000       0.96400000
C        0.42230000      -0.49270000       1.60820000
N        0.36900000      -1.94720000       1.55510000
C       -0.78290000      -2.66910000       1.02420000
H        0.88310000       1.99270000       0.52970000
H       -0.77800000       2.34950000       0.01870000
H       -0.38550000       2.23520000       1.74560000
H       -1.55910000       0.17840000       0.97940000
H        0.75170000      -1.77100000      -1.35350000
H        1.66840000      -0.26180000      -1.17520000
H        3.42170000      -0.68120000       0.66280000
H        2.96540000      -1.73100000       2.02520000
H        3.14280000      -2.40980000       0.40290000
H        0.74160000      -0.05570000       2.55190000
H       -1.25990000      -2.20940000       0.15030000
H       -0.46130000      -3.68070000       0.75650000
H       -1.52810000      -2.76240000       1.82080000
