22
Properties=species:S:1:pos:R:3 gdb_65094=T pbc="F F F"
C       -0.08820000       1.44550000       0.31070000
C        0.01190000      -0.03980000       0.00570000
C        1.08800000      -0.47930000      -0.96010000
C        1.23270000      -0.78590000       0.50840000
C       -1.29010000      -0.77250000       0.05650000
C       -1.79430000      -1.71340000      -0.96660000
N       -2.49160000      -0.42090000      -0.82630000
C       -3.37410000      -0.58600000       0.38060000
C       -2.16930000      -0.87110000       1.31220000
H        0.89490000       1.92320000       0.25820000
H       -0.75000000       1.93810000      -0.40860000
H       -0.48720000       1.62650000       1.31520000
H        0.88970000      -1.30580000      -1.63190000
H        1.71690000       0.29490000      -1.38650000
H        1.96360000      -0.23070000       1.08690000
H        1.10550000      -1.81690000       0.82150000
H       -1.24940000      -1.79440000      -1.90100000
H       -2.30900000      -2.62500000      -0.66370000
H       -3.89020000       0.35120000       0.59820000
H       -4.11840000      -1.38210000       0.26840000
H       -2.14240000      -1.82520000       1.84720000
H       -1.99180000      -0.06710000       2.02850000
