21
Properties=species:S:1:pos:R:3 gdb_93686=T pbc="F F F"
C        0.11050000       1.54230000      -0.04800000
C        0.05750000       0.01790000       0.00520000
O        0.71340000      -0.46490000      -1.16280000
C        0.91800000      -1.86930000      -1.12610000
C        1.96740000      -2.21350000      -0.06180000
C        2.12410000      -3.72120000       0.10440000
O        3.24750000      -1.72330000      -0.47980000
C        1.56080000      -1.53950000       1.23390000
C        0.68440000      -0.53780000       1.25990000
H        1.14650000       1.88980000       0.00390000
H       -0.33090000       1.89960000      -0.98200000
H       -0.44460000       1.97470000       0.78960000
H       -1.00340000      -0.29750000      -0.03060000
H       -0.02930000      -2.39600000      -0.92790000
H        1.28430000      -2.15810000      -2.11520000
H        2.41170000      -4.17900000      -0.84690000
H        2.91010000      -3.93490000       0.83440000
H        1.19270000      -4.17830000       0.45100000
H        3.11590000      -0.78810000      -0.67910000
H        2.03540000      -1.89400000       2.14560000
H        0.39170000      -0.06860000       2.19630000
