14
Properties=species:S:1:pos:R:3 gdb_46020=T pbc="F F F"
O        0.04580000      -0.02850000       0.23490000
C        0.00830000       1.15500000       0.03280000
N       -1.18380000       1.86440000      -0.06450000
C       -1.25140000       3.24800000      -0.02490000
C       -0.15640000       3.98260000      -0.28020000
C        1.08810000       3.21220000      -0.66020000
O        1.12750000       1.90020000      -0.06440000
C       -0.12310000       5.39280000      -0.25440000
C       -0.03550000       6.59550000      -0.25440000
H       -2.00240000       1.31150000       0.13170000
H       -2.21400000       3.67600000       0.22330000
H        1.16430000       3.10030000      -1.75110000
H        1.99010000       3.71520000      -0.30790000
H        0.02360000       7.65550000      -0.24910000
