21
Properties=species:S:1:pos:R:3 gdb_81433=T pbc="F F F"
C        0.02100000       1.58950000       0.01820000
C       -0.05250000       0.06840000      -0.00570000
C        1.12110000      -0.63830000      -0.73270000
O        1.94680000      -0.35720000       0.45960000
C        0.68030000      -0.64540000       1.15860000
C        0.55280000      -2.17020000       0.91230000
C        1.20480000      -3.09480000       1.90830000
C       -0.46640000      -2.65560000      -0.08860000
C        0.87300000      -2.15070000      -0.57630000
H        1.03140000       1.92750000       0.25550000
H       -0.26640000       2.00560000      -0.95370000
H       -0.66780000       1.99810000       0.76600000
H       -1.06800000      -0.25070000      -0.24510000
H        1.55620000      -0.27070000      -1.66260000
H        0.65840000      -0.28800000       2.18960000
H        0.62710000      -3.15940000       2.83830000
H        1.29550000      -4.10920000       1.50650000
H        2.21070000      -2.74030000       2.15710000
H       -0.58910000      -3.73510000      -0.12720000
H       -1.38740000      -2.12240000      -0.29040000
H        1.58240000      -2.84030000      -1.01940000
