19
Properties=species:S:1:pos:R:3 gdb_121343=T pbc="F F F"
O       -0.07760000       1.45980000       0.12500000
C       -0.00260000       0.04550000      -0.01180000
C       -1.42290000      -0.50970000      -0.07220000
N       -2.16570000      -0.13870000      -1.25560000
C       -2.70200000       1.19010000      -1.51250000
C       -3.41330000       0.98130000      -2.86590000
N       -2.63070000      -0.10850000      -3.43680000
C       -2.05400000      -0.86990000      -2.42210000
O       -1.53860000      -1.96360000      -2.54200000
H        0.81220000       1.81780000       0.05710000
H        0.53460000      -0.24450000      -0.92610000
H        0.51830000      -0.41000000       0.84570000
H       -1.36940000      -1.60190000      -0.06040000
H       -1.97630000      -0.17740000       0.81380000
H       -3.39200000       1.50380000      -0.72290000
H       -1.90400000       1.93780000      -1.58330000
H       -4.46620000       0.70130000      -2.71540000
H       -3.38060000       1.87820000      -3.49000000
H       -2.98650000      -0.63070000      -4.22230000
