15
Properties=species:S:1:pos:R:3 gdb_77064=T pbc="F F F"
O        0.14650000       1.37470000       0.22920000
C        0.12730000      -0.02350000       0.11390000
C       -1.27730000      -0.68050000       0.16670000
C       -2.45780000       0.28410000       0.19500000
C       -3.73380000      -0.39470000      -0.01710000
N       -4.74070000      -0.93780000      -0.17580000
O       -1.05480000      -1.24410000      -1.17020000
C        0.15140000      -0.58960000      -1.29400000
N        0.94470000      -0.46040000      -2.25310000
H        0.76220000       1.71060000      -0.43290000
H        0.84900000      -0.49850000       0.79020000
H       -1.39700000      -1.48660000       0.89310000
H       -2.47530000       0.79080000       1.16650000
H       -2.31810000       1.06040000      -0.56200000
H        0.62160000      -0.93980000      -3.09480000
