19
Properties=species:S:1:pos:R:3 gdb_108139=T pbc="F F F"
C       -0.02350000       1.51350000      -0.16920000
C       -0.05780000       0.01030000       0.14020000
C       -1.43660000      -0.55590000       0.03560000
O       -2.44080000      -0.05520000       0.93140000
C       -3.18670000      -1.30200000       0.77140000
C       -4.23360000      -1.04590000      -0.30210000
O       -3.46120000      -0.69550000      -1.45870000
C       -2.13380000      -1.09480000      -1.20860000
C       -2.01010000      -1.95830000       0.01530000
H        0.98810000       1.91260000      -0.05140000
H       -0.35260000       1.71120000      -1.19410000
H       -0.68780000       2.05930000       0.50630000
H        0.59500000      -0.53800000      -0.55000000
H        0.32610000      -0.17310000       1.15170000
H       -3.53530000      -1.71000000       1.72060000
H       -4.84850000      -1.93780000      -0.49980000
H       -4.88400000      -0.20450000      -0.04540000
H       -1.56050000      -1.28960000      -2.10730000
H       -1.59510000      -2.95210000       0.11660000
