17
Properties=species:S:1:pos:R:3 gdb_28331=T pbc="F F F"
O        0.07500000       1.31290000      -0.03680000
C        0.08100000      -0.03850000      -0.06790000
C        0.04840000      -0.83420000      -1.19160000
N        0.10430000      -2.11880000      -0.67590000
C        0.00200000      -3.47690000      -1.17640000
C        0.38470000      -4.30600000       0.08110000
C        0.10850000      -3.38140000       1.30250000
C        0.14100000      -2.02480000       0.67200000
N        0.13420000      -0.77160000       1.08820000
H        0.10520000       1.55560000       0.89650000
H        0.02290000      -0.61140000      -2.24270000
H       -1.01930000      -3.68760000      -1.51890000
H        0.68110000      -3.64930000      -2.01650000
H       -0.16730000      -5.24650000       0.12860000
H        1.44970000      -4.54920000       0.04000000
H       -0.87330000      -3.58300000       1.74930000
H        0.85140000      -3.50350000       2.09480000
