20
Properties=species:S:1:pos:R:3 gdb_122607=T pbc="F F F"
C        0.01700000       1.43530000      -0.01220000
O       -0.18920000       0.05120000      -0.15490000
C        0.68010000      -0.53940000      -1.09430000
C        0.39800000      -2.03520000      -1.14050000
C        1.29750000      -2.76260000      -2.13150000
N        2.73620000      -2.88520000      -1.74380000
C        2.76070000      -4.35430000      -1.97880000
C        1.23430000      -4.30200000      -2.15280000
O        0.35730000      -5.10730000      -2.23250000
H        1.03910000       1.66400000       0.33020000
H       -0.15470000       1.97510000      -0.95750000
H       -0.69430000       1.79770000       0.73400000
H        0.53110000      -0.08930000      -2.09310000
H        1.73210000      -0.36410000      -0.81230000
H        0.54320000      -2.45530000      -0.14000000
H       -0.64790000      -2.20250000      -1.42120000
H        1.14630000      -2.36380000      -3.14790000
H        3.36720000      -2.36930000      -2.34490000
H        3.27010000      -4.68680000      -2.89400000
H        3.13410000      -4.94690000      -1.13650000
