15
Properties=species:S:1:pos:R:3 gdb_133058=T pbc="F F F"
O        0.01660000       1.42600000       0.00850000
C       -0.00410000       0.01030000       0.00320000
C       -1.43420000      -0.47660000       0.01430000
N       -1.58230000      -1.80650000       0.01250000
C       -2.81600000      -2.30570000       0.02170000
C       -3.94360000      -1.49300000       0.03310000
F       -5.15790000      -2.05030000       0.04200000
C       -3.80530000      -0.11560000       0.03510000
C       -2.51510000       0.40420000       0.02550000
H        0.93340000       1.71310000       0.00080000
H        0.49610000      -0.40240000      -0.88660000
H        0.51220000      -0.40940000       0.88060000
H       -2.92880000      -3.38670000       0.02020000
H       -4.68340000       0.52020000       0.04400000
H       -2.33700000       1.47110000       0.02650000
