18
Properties=species:S:1:pos:R:3 gdb_98995=T pbc="F F F"
C        0.81390000       1.32500000       0.18000000
N        0.90730000      -0.00690000       0.74160000
C       -0.18460000      -0.67030000       1.17520000
O       -1.33370000      -0.27350000       1.15930000
N        0.07890000      -1.97090000       1.70030000
C        1.26260000      -2.65000000       1.83330000
O        2.34770000      -2.20380000       1.49430000
C        1.12390000      -4.04880000       2.45550000
N        2.36360000      -4.78320000       2.60290000
H        1.39690000       2.04270000       0.76760000
H        1.17860000       1.34390000      -0.85300000
H       -0.23430000       1.62460000       0.19210000
H        1.79680000      -0.48550000       0.82780000
H       -0.77320000      -2.41750000       2.00810000
H        0.64280000      -3.94060000       3.43650000
H        0.42470000      -4.62960000       1.83960000
H        2.80950000      -4.86560000       1.69330000
H        3.01140000      -4.23060000       3.15790000
