15
Properties=species:S:1:pos:R:3 gdb_19347=T pbc="F F F"
O       -0.10180000       0.24010000      -0.76310000
C        0.09230000       1.04900000       0.12320000
C        1.25080000       1.93600000       0.15950000
N        2.11120000       2.07040000      -1.04550000
C        2.68310000       1.43890000       0.12670000
C        3.09030000       2.50230000       1.17810000
C        2.74700000       3.90260000       0.73740000
C        1.64990000       2.99670000       1.22020000
H       -0.60600000       1.14500000       0.98150000
H        1.79220000       1.33140000      -1.67620000
H        2.99900000       0.40310000       0.12410000
H        3.74930000       2.28420000       2.00710000
H        3.03580000       4.67070000       1.44790000
H        2.81180000       4.18500000      -0.30530000
H        1.03890000       3.20290000       2.08940000
