23
Properties=species:S:1:pos:R:3 gdb_122108=T pbc="F F F"
C       -0.00430000       1.56860000       0.08860000
C       -0.00400000       0.04190000      -0.03470000
C        0.71750000      -0.48370000      -1.29620000
C        0.86220000      -2.01780000      -1.26310000
C        1.70070000      -2.58400000      -2.41400000
C        1.83170000      -4.10030000      -2.35550000
O        2.63090000      -4.51140000      -3.45300000
C       -0.07560000      -0.07080000      -2.52060000
O        0.27510000       0.71780000      -3.35920000
H        1.01760000       1.95850000       0.14280000
H       -0.48980000       2.04490000      -0.76890000
H       -0.53270000       1.88640000       0.99230000
H        0.48030000      -0.40060000       0.84400000
H       -1.03660000      -0.33400000      -0.03120000
H        1.70620000      -0.01620000      -1.37390000
H        1.31160000      -2.30140000      -0.30310000
H       -0.13970000      -2.47130000      -1.27300000
H        1.26380000      -2.31150000      -3.38220000
H        2.70590000      -2.14640000      -2.39690000
H        2.28720000      -4.39730000      -1.39580000
H        0.83090000      -4.56200000      -2.39440000
H        2.71160000      -5.46920000      -3.42630000
H       -1.07620000      -0.56790000      -2.58500000
