16
Properties=species:S:1:pos:R:3 gdb_522=T pbc="F F F"
C        3.07660000      -0.15650000      -0.05540000
C        1.59240000      -0.52200000      -0.11700000
C        0.67630000       0.68910000       0.15350000
C       -0.74450000       0.36210000       0.09950000
C       -1.91030000       0.06440000       0.04890000
C       -3.32310000      -0.28390000      -0.00980000
H        3.70770000      -1.02890000      -0.24990000
H        3.32880000       0.60890000      -0.79810000
H        3.34850000       0.23780000       0.93030000
H        1.34650000      -0.93810000      -1.10040000
H        1.36600000      -1.30630000       0.61410000
H        0.92100000       1.11240000       1.13750000
H        0.90140000       1.48020000      -0.57510000
H       -3.84470000       0.28910000      -0.78480000
H       -3.46310000      -1.34690000      -0.23640000
H       -3.82500000      -0.08190000       0.94320000
