17
Properties=species:S:1:pos:R:3 gdb_17334=T pbc="F F F"
C       -0.01080000       1.55180000       0.02740000
C        0.11110000       0.05100000       0.01210000
N       -0.80830000      -0.79840000       0.79960000
C        0.62810000      -0.77120000       1.14480000
C        1.44550000      -1.94600000       0.60670000
C        1.38020000      -1.81550000      -0.91380000
O        0.07440000      -1.94950000      -1.47820000
C        0.57730000      -0.63130000      -1.26890000
H        0.89340000       2.02810000      -0.36840000
H       -0.85670000       1.88770000      -0.58360000
H       -0.16210000       1.92310000       1.04620000
H       -1.31200000      -0.20480000       1.45710000
H        0.92320000      -0.31470000       2.08570000
H        2.48750000      -1.85750000       0.93500000
H        1.06360000      -2.91290000       0.94870000
H        2.19170000      -2.19940000      -1.52910000
H        0.73820000      -0.03600000      -2.16470000
