19
Properties=species:S:1:pos:R:3 gdb_82742=T pbc="F F F"
C       -0.04620000       1.50960000       0.08800000
C        0.02780000       0.00570000       0.02700000
C        0.90240000      -0.77470000      -0.99430000
C        0.81370000      -1.92430000       0.02410000
C       -0.68310000      -2.10170000       0.46670000
O       -0.36150000      -1.66690000       1.83100000
C        0.67840000      -0.90800000       1.17540000
C       -1.30540000      -0.79530000      -0.07810000
O       -2.36420000      -0.32670000       0.71290000
H        0.93130000       1.95380000       0.30380000
H       -0.39740000       1.92430000      -0.86400000
H       -0.75120000       1.82750000       0.86210000
H        0.50170000      -0.91260000      -2.00320000
H        1.92480000      -0.39080000      -1.05860000
H        1.46900000      -2.79270000       0.05030000
H       -1.24120000      -3.03590000       0.42780000
H        1.46240000      -0.52400000       1.82660000
H       -1.66620000      -0.86350000      -1.10800000
H       -2.10070000      -0.52520000       1.62370000
