20
Properties=species:S:1:pos:R:3 gdb_91959=T pbc="F F F"
O        0.13800000       1.46700000       0.03720000
C        0.03410000       0.04440000       0.07910000
C        0.60710000      -0.43090000       1.43010000
C       -0.58910000      -0.54960000       2.36920000
C       -1.54520000       0.61360000       2.44050000
C       -1.84980000      -0.55240000       1.52690000
C       -1.42060000      -0.44290000       0.09070000
C       -2.32080000      -0.17630000      -1.05930000
N       -1.84400000      -1.54600000      -0.79030000
H       -0.44440000       1.78140000      -0.66250000
H        0.57980000      -0.38890000      -0.77400000
H        1.07200000      -1.41480000       1.30390000
H        1.37810000       0.26360000       1.77620000
H       -0.49580000      -1.19760000       3.23330000
H       -2.15390000       0.69550000       3.33480000
H       -1.24500000       1.55740000       2.00180000
H       -2.68980000      -1.20150000       1.74300000
H       -3.38260000      -0.01750000      -0.89200000
H       -1.92400000       0.34860000      -1.92770000
H       -1.09740000      -1.78290000      -1.44080000
