21
Properties=species:S:1:pos:R:3 gdb_65219=T pbc="F F F"
C        0.01290000       1.51950000      -0.44290000
C       -0.01130000       0.05400000      -0.05860000
C        1.17670000      -0.76530000      -0.34230000
O        0.91160000      -0.29980000       0.98570000
C       -1.39330000      -0.57300000       0.04820000
C       -1.43310000      -2.07780000       0.42740000
C       -2.70240000      -2.19720000       1.23600000
C       -3.17640000      -1.00820000       1.60110000
C       -2.31240000       0.12240000       1.09820000
H        1.03980000       1.89080000      -0.47990000
H       -0.44860000       1.66980000      -1.42510000
H       -0.54020000       2.12380000       0.28290000
H        1.08370000      -1.83980000      -0.48700000
H        2.03710000      -0.30910000      -0.83120000
H       -1.87400000      -0.46120000      -0.93210000
H       -1.41920000      -2.73060000      -0.45260000
H       -0.56480000      -2.34750000       1.04360000
H       -3.12720000      -3.15570000       1.51330000
H       -4.04870000      -0.84270000       2.22390000
H       -1.72050000       0.54880000       1.92100000
H       -2.88980000       0.94820000       0.66790000
