20
Properties=species:S:1:pos:R:3 gdb_120583=T pbc="F F F"
C       -0.19300000       1.43330000      -0.12110000
C       -0.27870000      -0.07430000      -0.33040000
N       -1.33590000      -0.66000000       0.50090000
C       -1.45020000      -2.08120000       0.38450000
C       -2.64680000      -2.75720000       0.98500000
C       -2.56130000      -2.59870000      -0.53710000
N       -3.34080000      -1.62120000      -1.24570000
C       -2.26810000      -3.79540000      -1.29290000
N       -2.03440000      -4.76790000      -1.87440000
H        0.58170000       1.86650000      -0.75960000
H       -1.14670000       1.91420000      -0.35700000
H        0.06030000       1.67500000       0.91780000
H       -0.52250000      -0.29720000      -1.37530000
H        0.70310000      -0.53820000      -0.13040000
H       -1.20710000      -0.39710000       1.47310000
H       -0.52460000      -2.65980000       0.36010000
H       -2.51740000      -3.74190000       1.41890000
H       -3.38350000      -2.12460000       1.46840000
H       -4.33200000      -1.82910000      -1.18290000
H       -3.17140000      -0.71780000      -0.80990000
