20
Properties=species:S:1:pos:R:3 gdb_103157=T pbc="F F F"
C        0.02230000       1.53170000      -0.17760000
N        0.08080000       0.10450000       0.05920000
C        0.89890000      -0.72190000      -0.85290000
C        1.34550000      -1.51420000       0.37800000
O        1.86520000      -2.57560000       0.58080000
C        0.72700000      -0.44820000       1.29320000
C        1.76270000       0.43120000       1.99830000
C       -0.27060000      -1.06440000       2.29010000
O        0.39240000      -1.88770000       3.23010000
H        1.01140000       2.01650000      -0.25900000
H       -0.51920000       1.71930000      -1.11070000
H       -0.53300000       2.02180000       0.62770000
H        0.35010000      -1.26480000      -1.63010000
H        1.74390000      -0.18950000      -1.32340000
H        2.56820000       0.74870000       1.32960000
H        1.28420000       1.32750000       2.40750000
H        2.19640000      -0.12920000       2.82890000
H       -0.77510000      -0.27480000       2.85930000
H       -1.03990000      -1.61060000       1.72540000
H        0.86770000      -2.56410000       2.73000000
