17
Properties=species:S:1:pos:R:3 gdb_125968=T pbc="F F F"
C       -0.06900000       1.48830000      -0.31870000
C        0.00750000      -0.00180000      -0.09290000
C        1.27980000      -0.74470000      -0.29960000
N        0.75640000      -0.56700000       1.05450000
C        1.44540000       0.27960000       1.92640000
C        0.99380000       0.79840000       3.12280000
N        2.06080000       1.49050000       3.59070000
N        3.11250000       1.40910000       2.76370000
N        2.73910000       0.67790000       1.74790000
H        0.90180000       1.96700000      -0.16830000
H       -0.39730000       1.69380000      -1.34280000
H       -0.78950000       1.95550000       0.36220000
H       -0.92330000      -0.53740000      -0.27000000
H        1.27010000      -1.76900000      -0.66180000
H        2.15920000      -0.16670000      -0.56790000
H        0.05800000       0.72320000       3.64820000
H        2.14800000       2.01410000       4.44700000
