17
Properties=species:S:1:pos:R:3 gdb_4778=T pbc="F F F"
C        0.05850000       1.48500000       0.24890000
C       -0.04750000      -0.00910000      -0.10150000
C       -1.45270000      -0.50300000      -0.14190000
N       -2.12080000      -0.96130000      -1.15340000
C       -3.38470000      -1.26930000      -0.64680000
C       -4.46290000      -1.83310000      -1.50850000
C       -3.39710000      -0.96680000       0.67250000
O       -2.16520000      -0.47350000       1.01480000
H        1.10640000       1.79710000       0.27660000
H       -0.46110000       2.09780000      -0.49350000
H       -0.38460000       1.68880000       1.22750000
H        0.38720000      -0.20780000      -1.08390000
H        0.51800000      -0.59680000       0.63210000
H       -4.15040000      -2.78380000      -1.95350000
H       -5.37630000      -2.00630000      -0.93360000
H       -4.69910000      -1.15320000      -2.33400000
H       -4.12700000      -1.03050000       1.46100000
