21
Properties=species:S:1:pos:R:3 gdb_119621=T pbc="F F F"
C       -0.23230000       1.35900000      -0.09470000
O       -0.15680000      -0.04580000      -0.08030000
C        0.72990000      -0.55690000      -1.05300000
C        0.75320000      -2.05350000      -0.94490000
C        1.06990000      -2.73220000       0.37780000
C        1.27050000      -4.21970000      -0.00070000
C        1.76560000      -4.21000000      -1.46810000
C        1.15820000      -2.94440000      -2.04170000
O       -0.22880000      -2.77240000      -1.71610000
H        0.74710000       1.82350000       0.10530000
H       -0.59950000       1.73910000      -1.06120000
H       -0.93140000       1.65720000       0.69030000
H        0.41330000      -0.26610000      -2.06710000
H        1.74660000      -0.15610000      -0.88920000
H        1.98920000      -2.29370000       0.78640000
H        0.28040000      -2.58220000       1.11810000
H        1.96210000      -4.73360000       0.67090000
H        0.31180000      -4.73930000       0.05330000
H        2.85890000      -4.13370000      -1.52610000
H        1.47030000      -5.10800000      -2.01950000
H        1.45420000      -2.57600000      -3.02200000
