20
Properties=species:S:1:pos:R:3 gdb_113809=T pbc="F F F"
C        1.08170000       1.15080000      -0.15670000
C        0.06600000       0.07760000       0.15400000
N        0.58860000      -1.25590000       0.49380000
C       -0.13910000      -0.48860000       1.51730000
C        0.57950000       0.03270000       2.72470000
O        0.62510000      -0.81070000       3.88350000
C        1.86820000      -0.43650000       3.26460000
C        2.70200000      -1.57860000       2.73850000
O        3.38040000      -2.21790000       3.81260000
H        1.94830000       1.07340000       0.50400000
H        1.43540000       1.05730000      -1.18870000
H        0.64380000       2.14800000      -0.04010000
H       -0.82370000       0.10550000      -0.47410000
H       -0.00560000      -1.98790000       0.11480000
H       -1.15400000      -0.80910000       1.75190000
H        0.30580000       1.06300000       2.96750000
H        2.44370000       0.28120000       3.85410000
H        2.07880000      -2.27270000       2.16810000
H        3.47940000      -1.19900000       2.06760000
H        2.70200000      -2.56400000       4.40290000
