14
Properties=species:S:1:pos:R:3 gdb_3479=T pbc="F F F"
C       -0.04140000       1.47330000       0.02120000
C        0.04290000      -0.01190000       0.02320000
C        1.04450000      -1.00190000      -0.52090000
C       -0.14290000      -1.94740000      -0.82140000
C       -0.52490000      -1.96710000       0.61370000
C        0.64840000      -1.02240000       0.96750000
N       -1.13770000      -0.94110000      -0.30390000
H        0.92760000       1.91080000       0.28440000
H       -0.32830000       1.84730000      -0.96770000
H       -0.78350000       1.82390000       0.74690000
H        2.01930000      -0.85670000      -0.96510000
H       -0.37490000      -2.61760000      -1.64080000
H       -1.12890000      -2.65640000       1.19200000
H        1.27230000      -0.89530000       1.84110000
