18
Properties=species:S:1:pos:R:3 gdb_12246=T pbc="F F F"
C        0.23410000       1.56980000       0.03780000
C        0.08860000       0.04450000       0.03790000
C        0.46580000      -0.57020000      -1.29540000
O        1.90120000      -0.38740000      -1.59110000
C        2.11370000      -1.74010000      -1.65820000
O        3.14390000      -2.30670000      -1.83780000
C        0.64550000      -2.10650000      -1.42350000
C        0.33500000      -3.04770000      -0.26580000
H        1.26370000       1.85730000      -0.19210000
H       -0.41930000       2.03050000      -0.71110000
H       -0.02780000       1.98790000       1.01380000
H        0.71430000      -0.38810000       0.82620000
H       -0.94760000      -0.23900000       0.26320000
H       -0.11700000      -0.12470000      -2.10820000
H        0.20100000      -2.48900000      -2.34780000
H        0.78180000      -2.70880000       0.67230000
H       -0.74460000      -3.14450000      -0.11620000
H        0.73630000      -4.04130000      -0.48390000
