14
Properties=species:S:1:pos:R:3 gdb_25790=T pbc="F F F"
N       -0.15570000       1.27690000       0.09710000
C        0.03560000      -0.07290000       0.14120000
O        1.12320000      -0.60670000       0.19200000
C       -1.23160000      -0.86070000       0.11390000
N       -1.36110000      -2.15220000       0.14280000
C       -2.72250000      -2.37550000       0.09600000
N       -3.21830000      -3.66650000       0.17370000
C       -3.36760000      -1.17280000       0.03820000
O       -2.40650000      -0.19210000       0.04870000
H        0.65540000       1.86960000       0.14370000
H       -1.07420000       1.68400000       0.09460000
H       -2.52580000      -4.35190000      -0.09520000
H       -4.09620000      -3.81470000      -0.30230000
H       -4.39260000      -0.85160000      -0.00630000
