15
Properties=species:S:1:pos:R:3 gdb_85515=T pbc="F F F"
O        0.32880000       1.09210000      -0.69340000
C        0.04790000      -0.05400000       0.05280000
C        0.24920000       0.01410000       1.57660000
C       -0.65060000      -1.09720000       2.09570000
O       -0.63640000      -1.66750000       3.14150000
O       -1.57600000      -1.41610000       1.11910000
C       -1.41780000      -0.55680000      -0.01910000
C       -2.48730000       0.52750000       0.09250000
O       -2.31550000       1.70040000      -0.13930000
H       -0.39280000       1.72170000      -0.54690000
H        0.68840000      -0.84790000      -0.34740000
H        1.27580000      -0.12910000       1.91280000
H       -0.10780000       0.97310000       1.97140000
H       -1.62140000      -1.14540000      -0.92120000
H       -3.46880000       0.14460000       0.44080000
