21
Properties=species:S:1:pos:R:3 gdb_121809=T pbc="F F F"
C        0.04950000       1.51410000      -0.02260000
C        0.00960000      -0.00380000      -0.01380000
O        0.65070000      -0.47940000      -1.18580000
C        0.67240000      -1.88180000      -1.28910000
C        1.44510000      -2.23120000      -2.58780000
C        0.69290000      -1.69490000      -3.82200000
N        2.81290000      -1.68930000      -2.60060000
C        1.52890000      -3.70140000      -2.66370000
N        1.57250000      -4.85550000      -2.69400000
H        1.08260000       1.87260000      -0.03940000
H       -0.46570000       1.90710000      -0.90350000
H       -0.44020000       1.91050000       0.87150000
H        0.51770000      -0.40310000       0.87910000
H       -1.03070000      -0.36620000       0.01650000
H        1.18630000      -2.33290000      -0.42460000
H       -0.34850000      -2.29480000      -1.32470000
H        0.58880000      -0.61180000      -3.72870000
H        1.25520000      -1.92600000      -4.72770000
H       -0.30480000      -2.13540000      -3.89360000
H        2.74100000      -0.70030000      -2.37310000
H        3.35760000      -2.11450000      -1.85420000
