17
Properties=species:S:1:pos:R:3 gdb_125587=T pbc="F F F"
C        0.03010000       1.45330000      -0.00940000
C        0.01260000      -0.03740000       0.01980000
N       -0.14050000      -0.76970000      -1.07330000
N       -0.09780000      -2.03610000      -0.57900000
C        0.07880000      -2.01840000       0.75750000
N        0.14910000      -0.76390000       1.17090000
C        0.16080000      -3.21250000       1.61340000
C        1.14150000      -3.21660000       2.73950000
N       -0.29110000      -3.09420000       3.01120000
H        0.97760000       1.83720000       0.38140000
H       -0.10300000       1.81050000      -1.03180000
H       -0.76880000       1.86150000       0.61760000
H       -0.19380000      -2.82140000      -1.20130000
H       -0.09510000      -4.15280000       1.13150000
H        1.59260000      -4.15640000       3.04540000
H        1.76770000      -2.33550000       2.84150000
H       -0.51230000      -2.11300000       3.17760000
