16
Properties=species:S:1:pos:R:3 gdb_22695=T pbc="F F F"
O       -0.11510000       1.35430000       0.00930000
N        0.03630000      -0.05630000      -0.00040000
C       -1.08220000      -0.63040000       0.00680000
C       -2.58710000      -0.42230000       0.02210000
C       -2.62880000      -1.55620000      -1.05840000
C       -1.57980000      -2.07290000       0.00300000
C       -2.60860000      -1.56870000       1.09000000
C       -0.83770000      -3.29570000      -0.01110000
C       -0.22200000      -4.32810000      -0.02290000
H        0.80240000       1.64700000       0.00230000
H       -3.14040000       0.51110000       0.03280000
H       -3.55650000      -2.13230000      -1.10000000
H       -2.24020000      -1.32060000      -2.04990000
H       -2.20140000      -1.34470000       2.07660000
H       -3.53550000      -2.14540000       1.14220000
H        0.32770000      -5.23670000      -0.03340000
