16
Properties=species:S:1:pos:R:3 gdb_27731=T pbc="F F F"
C       -0.01880000       1.54750000       0.05430000
C        0.02180000       0.05110000       0.03050000
C        0.01550000      -0.77270000      -1.07550000
O        0.06270000      -2.09590000      -0.65530000
C        0.09910000      -2.08270000       0.68170000
N        0.21280000      -3.30510000       1.28920000
C        0.07470000      -0.79650000       1.17040000
C       -0.03610000      -0.51370000      -2.48860000
O       -0.04350000      -1.35190000      -3.37050000
H        0.87030000       1.95210000       0.55050000
H       -0.06750000       1.97470000      -0.94860000
H       -0.88950000       1.90370000       0.61580000
H       -0.09950000      -4.08460000       0.72820000
H       -0.10190000      -3.34450000       2.24600000
H        0.09720000      -0.50160000       2.20760000
H       -0.07140000       0.57280000      -2.72440000
