17
Properties=species:S:1:pos:R:3 gdb_4130=T pbc="F F F"
C       -0.29750000       1.42890000       0.00960000
C        0.10770000      -0.01960000       0.04940000
N        0.31360000      -0.69510000       1.12290000
O        0.11700000       0.04580000       2.29850000
C        0.24270000      -0.73100000      -1.24340000
C        1.31500000      -1.80330000      -1.45650000
C       -0.11400000      -2.22290000      -1.34520000
O       -0.59940000      -2.91680000      -0.25460000
H        0.34400000       1.97810000      -0.68710000
H       -1.32490000       1.51700000      -0.36310000
H       -0.24210000       1.88830000       0.99440000
H        0.37550000      -0.58230000       2.98070000
H        0.00000000      -0.11550000      -2.10300000
H        1.80860000      -1.83080000      -2.42240000
H        1.95360000      -2.00460000      -0.60280000
H       -0.62740000      -2.52490000      -2.25300000
H       -0.30130000      -2.43780000       0.54010000
