18
Properties=species:S:1:pos:R:3 gdb_73794=T pbc="F F F"
C        0.00930000       1.53590000      -0.08880000
C       -0.01570000       0.02900000      -0.08000000
C       -1.17430000      -0.67610000      -0.03830000
N       -2.41360000      -0.08660000      -0.03980000
C       -1.14740000      -2.18010000      -0.00580000
C        0.13760000      -2.66250000      -0.66270000
O        1.28480000      -2.03230000      -0.10260000
C        1.27730000      -0.66380000       0.00640000
O        2.33160000      -0.10860000       0.20600000
H        1.04390000       1.87950000      -0.09760000
H       -0.50390000       1.94860000      -0.96650000
H       -0.47210000       1.96300000       0.80280000
H       -2.47270000       0.88880000       0.20780000
H       -3.19870000      -0.64290000       0.25700000
H       -1.20650000      -2.53380000       1.03240000
H       -2.01140000      -2.59230000      -0.54040000
H        0.28530000      -3.73540000      -0.51880000
H        0.09930000      -2.45980000      -1.74170000
