20
Properties=species:S:1:pos:R:3 gdb_28198=T pbc="F F F"
C        0.00960000       1.48730000       0.08830000
C        0.01100000       0.00000000      -0.04540000
C       -0.03820000      -0.80410000      -1.16850000
C       -0.04560000      -2.15390000      -0.71660000
C        0.00250000      -2.13240000       0.65040000
C        0.08330000      -3.47760000       1.29570000
C       -0.26950000      -4.39470000       0.07760000
C       -0.01370000      -3.56780000      -1.22650000
N        0.04640000      -0.82740000       1.06580000
H        0.89330000       1.85880000       0.62340000
H        0.00930000       1.94700000      -0.90280000
H       -0.87380000       1.85960000       0.62360000
H       -0.07270000      -0.43990000      -2.18500000
H        1.08950000      -3.69240000       1.68460000
H       -0.61220000      -3.62850000       2.13030000
H        0.29120000      -5.33300000       0.09440000
H       -1.33130000      -4.65360000       0.13110000
H       -0.76730000      -3.78840000      -1.99090000
H        0.95940000      -3.81880000      -1.67110000
H        0.06320000      -0.50390000       2.01750000
