18
Properties=species:S:1:pos:R:3 gdb_93643=T pbc="F F F"
C       -0.15090000       1.50200000      -0.13850000
C       -0.00350000       0.00620000       0.09070000
O        0.45490000      -0.63710000      -1.11210000
C        1.56660000      -1.47010000      -0.84510000
C        1.47610000      -1.77240000       0.66670000
C        2.72070000      -2.20100000       1.28490000
N        3.71490000      -2.49510000       1.79700000
C        0.98470000      -0.39690000       1.20110000
O        2.03580000       0.54070000       1.25710000
H        0.81710000       1.95490000      -0.35590000
H       -0.82520000       1.67510000      -0.98110000
H       -0.57230000       1.98650000       0.74790000
H       -0.98450000      -0.42400000       0.34220000
H        1.49610000      -2.37130000      -1.46020000
H        2.51230000      -0.95880000      -1.06800000
H        0.70440000      -2.52870000       0.84760000
H        0.48080000      -0.49570000       2.17130000
H        2.68910000       0.23430000       1.89680000
