19
Properties=species:S:1:pos:R:3 gdb_115832=T pbc="F F F"
O        0.43360000       0.63990000       0.89530000
C       -0.02570000      -0.53570000       0.26280000
C       -1.42360000      -0.32420000      -0.32230000
C       -2.09200000      -1.61300000      -0.81740000
C       -2.78160000      -2.10660000       0.44170000
C       -3.45140000      -3.39590000       0.60130000
O       -2.15330000      -3.17200000       1.16450000
C       -3.13110000      -0.85050000       1.22370000
O       -2.28500000       0.18370000       0.72010000
H       -0.30360000       0.94070000       1.44180000
H        0.68220000      -0.77250000      -0.53970000
H       -0.04420000      -1.39280000       0.95600000
H       -1.37520000       0.45620000      -1.08850000
H       -2.82940000      -1.39000000      -1.59520000
H       -1.38570000      -2.35140000      -1.20330000
H       -4.26100000      -3.50190000       1.32310000
H       -3.48710000      -4.09370000      -0.23470000
H       -4.17760000      -0.55390000       1.07120000
H       -2.96310000      -1.00710000       2.29520000
