13
Properties=species:S:1:pos:R:3 gdb_12958=T pbc="F F F"
O       -0.22570000       1.41240000       0.03190000
C       -0.13810000       0.02280000       0.02310000
C       -0.48190000      -0.82860000       1.21960000
N       -1.55270000      -0.22290000       2.01710000
C       -2.43260000      -0.15200000       0.91360000
O       -3.54230000       0.27550000       0.79950000
C       -1.40200000      -0.82150000      -0.00380000
O       -1.62160000      -1.82390000      -0.91480000
H        0.58480000       1.76570000       0.41520000
H        0.63700000      -0.40010000      -0.62010000
H        0.11850000      -1.63790000       1.61420000
H       -1.38910000       0.59700000       2.59120000
H       -1.90260000      -1.42340000      -1.74560000
