19
Properties=species:S:1:pos:R:3 gdb_113712=T pbc="F F F"
C        0.33430000       1.30240000       0.13700000
C       -0.26430000      -0.11150000      -0.01720000
C       -1.72590000      -0.08530000      -0.02850000
C       -2.92700000      -0.05630000      -0.06340000
C        0.25300000      -0.75960000      -1.29680000
O        1.60390000      -1.22220000      -1.28240000
C        0.54760000      -2.18870000      -1.46850000
C        0.43080000      -3.24540000      -0.39890000
O        1.47770000      -4.19500000      -0.51310000
H        1.42580000       1.24080000       0.14530000
H        0.02590000       1.94500000      -0.69300000
H       -0.00240000       1.76430000       1.06810000
H        0.07170000      -0.71430000       0.83340000
H       -3.98860000      -0.03590000      -0.08120000
H       -0.01500000      -0.20170000      -2.19660000
H        0.50620000      -2.58890000      -2.48290000
H        0.41310000      -2.78870000       0.59970000
H       -0.50430000      -3.80040000      -0.53010000
H        2.30610000      -3.70670000      -0.44690000
