21
Properties=species:S:1:pos:R:3 gdb_88479=T pbc="F F F"
C        0.49480000       1.54460000      -0.55820000
C        0.11950000       0.14300000      -0.12800000
C        1.12750000      -0.98210000      -0.12180000
C        0.56890000      -0.47120000       1.18330000
C        1.41810000       0.24380000       2.21340000
C        0.68270000       1.04560000       3.28470000
C        1.32170000      -0.25830000       3.65370000
C        2.71230000       0.73110000       1.81280000
C        3.80550000       1.13010000       1.50390000
H        1.51610000       1.79860000      -0.26700000
H        0.42140000       1.64530000      -1.64700000
H       -0.17500000       2.28840000      -0.11170000
H       -0.88740000      -0.14560000      -0.42200000
H        0.83010000      -1.96660000      -0.46660000
H        2.15740000      -0.72140000      -0.34310000
H       -0.17280000      -1.10920000       1.65690000
H        1.14400000       1.96230000       3.63210000
H       -0.39780000       1.08400000       3.19750000
H        0.68530000      -1.11930000       3.82740000
H        2.22710000      -0.23690000       4.24820000
H        4.76700000       1.48490000       1.22700000
