19
Properties=species:S:1:pos:R:3 gdb_26261=T pbc="F F F"
C       -0.00110000       1.57600000       0.67150000
C       -0.20160000       0.39580000      -0.27390000
O        0.79520000      -0.62100000      -0.07680000
C       -1.58620000      -0.18360000      -0.16930000
N       -2.49780000       0.14900000       0.72490000
C       -3.58650000      -0.64250000       0.45850000
C       -3.32690000      -1.46500000      -0.60550000
N       -2.04270000      -1.17140000      -1.00390000
C       -1.32990000      -1.77720000      -2.11640000
H        1.02880000       1.93230000       0.58930000
H       -0.68700000       2.39110000       0.42820000
H       -0.20150000       1.28050000       1.70510000
H       -0.02320000       0.72830000      -1.30440000
H        0.66110000      -0.97750000       0.80930000
H       -4.48880000      -0.58010000       1.04770000
H       -3.91190000      -2.21980000      -1.10570000
H       -1.44220000      -1.18650000      -3.03240000
H       -0.27230000      -1.85490000      -1.86230000
H       -1.72910000      -2.77720000      -2.29740000
