18
Properties=species:S:1:pos:R:3 gdb_26275=T pbc="F F F"
C        0.15080000       1.47600000       0.19920000
C       -0.08480000      -0.02640000      -0.01480000
O       -1.46740000      -0.31370000      -0.16950000
C        0.64100000      -0.52310000      -1.24760000
C       -0.01990000      -0.73950000      -2.45500000
C        0.71680000      -1.16240000      -3.55820000
N        2.03460000      -1.37880000      -3.54170000
C        2.65920000      -1.17280000      -2.37830000
C        2.01700000      -0.75360000      -1.21870000
H        1.21640000       1.69560000       0.31080000
H       -0.23440000       2.04250000      -0.65360000
H       -0.35900000       1.81800000       1.10780000
H        0.31740000      -0.56960000       0.85640000
H       -1.94250000       0.12890000       0.54010000
H       -1.08950000      -0.58990000      -2.52440000
H        0.21650000      -1.33870000      -4.50810000
H        3.73120000      -1.35720000      -2.37080000
H        2.58570000      -0.61570000      -0.30370000
