16
Properties=species:S:1:pos:R:3 gdb_68182=T pbc="F F F"
O       -0.08920000       1.41770000       0.01230000
C       -0.01390000       0.03410000       0.01380000
C        0.33620000      -0.83630000       1.28290000
C       -0.36620000      -1.93200000       0.41590000
C       -1.33380000      -0.79590000      -0.05950000
C        0.59980000      -1.98620000      -0.78800000
C        0.82670000      -0.68910000      -1.05060000
C        1.09050000      -3.14730000      -1.42030000
N        1.47810000      -4.12000000      -1.91840000
H        0.79760000       1.78050000       0.11300000
H        1.38950000      -0.98500000       1.53110000
H       -0.24450000      -0.54100000       2.16070000
H       -0.72120000      -2.87100000       0.83100000
H       -2.05600000      -0.49710000       0.70450000
H       -1.80880000      -0.90550000      -1.03600000
H        1.43380000      -0.23110000      -1.81870000
