17
Properties=species:S:1:pos:R:3 gdb_33908=T pbc="F F F"
N        0.20050000      -1.15020000       0.08300000
C        0.09520000       0.00060000       0.01830000
C       -0.08760000       1.41900000      -0.04110000
C        0.25580000       2.21790000      -1.24240000
N        1.09160000       2.41150000      -0.05520000
C        0.32890000       3.23950000       0.97490000
C       -0.64980000       4.35190000       0.51370000
C       -1.83090000       3.32420000       0.56780000
C       -0.83530000       2.22790000       1.04150000
H        0.78500000       1.69590000      -2.03350000
H       -0.41740000       2.99370000      -1.59150000
H        0.98570000       3.44960000       1.81730000
H       -0.73930000       5.14980000       1.25420000
H       -0.43820000       4.81580000      -0.45300000
H       -2.58310000       3.56860000       1.32020000
H       -2.34520000       3.12250000      -0.37530000
H       -1.06840000       1.66050000       1.94010000
