23
Properties=species:S:1:pos:R:3 gdb_116955=T pbc="F F F"
C       -0.02920000       1.53960000      -0.13860000
C       -0.00690000       0.01620000       0.00120000
C       -1.41620000      -0.60360000      -0.09370000
C       -1.41770000      -2.05720000       0.03290000
C       -1.38480000      -3.25700000       0.13750000
C       -1.38450000      -4.71270000       0.26950000
C       -2.77620000      -5.32400000       0.18250000
C       -3.37690000      -5.65000000      -1.15780000
C       -2.93860000      -6.76240000      -0.23430000
H        0.97920000       1.95840000      -0.06830000
H       -0.44960000       1.84410000      -1.10370000
H       -0.63720000       2.00220000       0.64710000
H        0.62620000      -0.42490000      -0.77680000
H        0.44060000      -0.26840000       0.96000000
H       -2.05520000      -0.16420000       0.68480000
H       -1.87210000      -0.31550000      -1.05100000
H       -0.75130000      -5.15460000      -0.51220000
H       -0.92020000      -4.99480000       1.22460000
H       -3.46310000      -4.95800000       0.93980000
H       -4.43900000      -5.48700000      -1.30290000
H       -2.77530000      -5.45760000      -2.04030000
H       -2.04470000      -7.31830000      -0.49970000
H       -3.69990000      -7.35960000       0.25520000
