21
Properties=species:S:1:pos:R:3 gdb_110999=T pbc="F F F"
C       -0.00790000       1.51460000       0.03790000
C       -0.02600000       0.00510000       0.00440000
C        0.30340000      -0.83350000      -1.27720000
C       -0.36830000      -1.94080000      -0.43750000
O        0.53910000      -2.12560000       0.66520000
C        0.85150000      -0.75810000       1.01210000
C       -1.34830000      -0.85070000       0.07820000
C       -2.11360000      -1.06280000       1.37350000
O       -3.26300000      -1.88060000       1.17900000
H        1.00300000       1.90060000      -0.13710000
H       -0.66330000       1.93410000      -0.73170000
H       -0.34380000       1.89740000       1.00840000
H       -0.28240000      -0.52460000      -2.14480000
H        1.35400000      -0.97860000      -1.54200000
H       -0.66920000      -2.91160000      -0.82990000
H        1.92240000      -0.56600000       0.87040000
H        0.59650000      -0.56360000       2.06040000
H       -2.04360000      -0.53990000      -0.70720000
H       -1.45860000      -1.48680000       2.14550000
H       -2.49370000      -0.10530000       1.74750000
H       -2.95310000      -2.76640000       0.96540000
