11
Properties=species:S:1:pos:R:3 gdb_2260=T pbc="F F F"
O       -0.10440000       1.46130000       0.00060000
C       -0.02020000       0.09650000       0.03210000
C       -0.26640000      -0.81320000      -1.18820000
C       -1.10390000      -0.94660000       0.03580000
O       -0.37560000      -1.75020000       1.00610000
C        0.59680000      -0.75790000       1.12780000
O        1.50100000      -0.71540000       1.89270000
H        0.65430000       1.80860000      -0.48210000
H       -0.72230000      -0.27530000      -2.01500000
H        0.42680000      -1.60390000      -1.45670000
H       -2.17600000      -0.87650000       0.14400000
