17
Properties=species:S:1:pos:R:3 gdb_108686=T pbc="F F F"
O        0.21900000       1.31370000       0.05240000
C        0.06500000      -0.08610000       0.00110000
C       -1.37660000      -0.46680000      -0.01870000
C       -2.48730000       0.28470000      -0.01050000
C       -3.69850000      -0.62980000      -0.04130000
O       -3.18290000      -1.95270000      -0.07060000
C       -1.76500000      -1.92250000      -0.05530000
C       -2.66670000       1.68520000       0.02020000
C       -2.96110000       2.85330000       0.04410000
H        1.15950000       1.51290000       0.05050000
H        0.54950000      -0.51710000      -0.89470000
H        0.54230000      -0.58070000       0.86750000
H       -4.33490000      -0.48870000       0.84500000
H       -4.32260000      -0.44540000      -0.92830000
H       -1.36620000      -2.43330000      -0.94810000
H       -1.38370000      -2.47240000       0.82190000
H       -3.17180000       3.89350000       0.06670000
