23
Properties=species:S:1:pos:R:3 gdb_58425=T pbc="F F F"
C        2.66900000       0.56560000       0.94490000
C        1.52790000      -0.40690000       0.62030000
O        0.27070000       0.14500000       0.99370000
C        1.48560000      -0.78770000      -0.85180000
O        1.13280000       0.32600000      -1.65620000
C        2.37470000      -1.83590000      -1.48140000
C        3.42550000      -2.62120000      -0.72360000
C        0.87340000      -2.07480000      -1.32710000
C        0.27590000      -3.10870000      -0.39720000
H        3.64830000       0.11360000       0.75510000
H        2.58700000       1.47960000       0.34540000
H        2.61640000       0.85790000       1.99660000
H        1.65090000      -1.30600000       1.23130000
H        0.01670000       0.72220000       0.26170000
H        1.91850000       0.87250000      -1.77060000
H        2.66960000      -1.58570000      -2.49830000
H        3.12240000      -2.85520000       0.29970000
H        3.63410000      -3.57190000      -1.22680000
H        4.36880000      -2.06660000      -0.66670000
H        0.31840000      -1.94820000      -2.25270000
H        0.88610000      -3.28520000       0.49190000
H       -0.71440000      -2.79250000      -0.05470000
H        0.16590000      -4.06980000      -0.91080000
