19
Properties=species:S:1:pos:R:3 gdb_36264=T pbc="F F F"
C        0.11730000      -1.11460000       1.10780000
C       -0.00740000      -0.05840000       0.54740000
C       -0.12880000       1.22920000      -0.12910000
C        1.22580000       1.96700000      -0.20450000
C        1.85150000       2.74470000      -1.33350000
C        0.97280000       3.80430000      -2.05470000
C       -0.44370000       3.93270000      -1.56290000
C        0.68090000       4.47630000      -0.72350000
C        1.55740000       3.42180000       0.00760000
H        0.21310000      -2.04990000       1.60090000
H       -0.52910000       1.06070000      -1.13510000
H       -0.86690000       1.83800000       0.40510000
H        2.00110000       1.36730000       0.26840000
H        2.81580000       2.45980000      -1.73650000
H        1.29620000       4.26740000      -2.97780000
H       -1.00250000       4.71010000      -2.07790000
H       -1.06100000       3.09470000      -1.27520000
H        0.74840000       5.52860000      -0.47960000
H        2.26640000       3.72440000       0.76860000
