20
Properties=species:S:1:pos:R:3 gdb_56005=T pbc="F F F"
C       -0.04190000       1.53300000      -0.04460000
C       -0.25280000       0.02690000       0.01600000
O       -0.91840000      -0.49390000       0.89350000
N        0.35920000      -0.68580000      -0.97700000
C        0.27780000      -2.13410000      -1.08610000
C       -0.45550000      -2.62580000      -2.36720000
C        0.32170000      -3.87840000      -2.84200000
C        1.65220000      -3.74360000      -2.13860000
C        1.62850000      -2.80950000      -1.19080000
H        0.54870000       1.86430000      -0.90290000
H       -1.01910000       2.02190000      -0.07350000
H        0.45560000       1.85450000       0.87440000
H        0.89480000      -0.19320000      -1.67360000
H       -0.24870000      -2.44600000      -0.17780000
H       -1.51640000      -2.81550000      -2.18980000
H       -0.39050000      -1.83980000      -3.12740000
H       -0.18100000      -4.80550000      -2.53430000
H        0.41740000      -3.93200000      -3.93240000
H        2.49970000      -4.38110000      -2.36630000
H        2.44330000      -2.55680000      -0.52140000
