17
Properties=species:S:1:pos:R:3 gdb_76994=T pbc="F F F"
O        0.56250000       1.16970000      -0.13380000
C        0.16320000      -0.15580000       0.04290000
C        0.27420000      -0.83590000       1.46770000
C        0.54020000       0.05040000       2.64550000
O        0.34790000       1.24940000       2.65110000
C       -1.20700000      -1.27320000       1.32260000
C       -2.10110000      -0.06280000       1.16580000
C       -1.31790000      -0.55080000      -0.01780000
O       -1.92570000      -1.02930000      -1.16280000
H        0.35830000       1.63860000       0.68830000
H        0.71220000      -0.76170000      -0.68490000
H        0.95590000      -1.69050000       1.48580000
H        0.90220000      -0.45520000       3.56690000
H       -1.58920000      -2.24290000       1.61250000
H       -3.15680000      -0.30930000       1.11260000
H       -1.87780000       0.87360000       1.66800000
H       -2.36300000      -0.29290000      -1.60420000
