18
Properties=species:S:1:pos:R:3 gdb_69909=T pbc="F F F"
C        0.11580000       1.42370000      -0.05580000
C       -0.08850000      -0.06950000      -0.04300000
C       -0.63120000      -0.78150000       1.14070000
N        0.80650000      -0.92130000       0.84240000
C        1.17100000      -1.99990000      -0.12240000
C       -0.08240000      -2.32480000      -0.99400000
C       -0.00580000      -0.81940000      -1.38260000
C        1.53640000      -1.09340000      -1.33860000
O        2.49430000      -0.82770000      -1.99020000
H        0.96610000       1.69770000      -0.68950000
H       -0.77290000       1.93540000      -0.44200000
H        0.31290000       1.79360000       0.95360000
H       -0.80250000      -0.18700000       2.03360000
H       -1.30490000      -1.62550000       1.05020000
H        1.82980000      -2.75890000       0.29160000
H        0.16580000      -2.97980000      -1.83160000
H       -0.98400000      -2.68880000      -0.50510000
H       -0.50900000      -0.39770000      -2.24950000
