18
Properties=species:S:1:pos:R:3 gdb_50866=T pbc="F F F"
O       -0.59110000       1.05350000       0.74060000
C        0.09680000       1.17410000      -0.23860000
C        1.47250000       1.82420000      -0.23130000
C        1.64530000       2.72430000      -1.45540000
O        1.44770000       2.30490000      -2.58000000
N        2.02640000       4.00710000      -1.18540000
C        2.13510000       5.00100000      -2.21340000
C        3.19530000       6.05750000      -2.05940000
C        3.33880000       4.99030000      -3.11540000
H       -0.22040000       0.81260000      -1.23770000
H        1.63490000       2.31930000       0.72900000
H        2.20790000       1.01550000      -0.33600000
H        2.04090000       4.31330000      -0.22570000
H        1.18960000       5.29560000      -2.66140000
H        2.94960000       7.06870000      -2.36230000
H        3.84320000       5.99360000      -1.19150000
H        4.07180000       4.21070000      -2.94790000
H        3.18920000       5.25780000      -4.15450000
