22
Properties=species:S:1:pos:R:3 gdb_105529=T pbc="F F F"
C        0.84450000      -0.69890000      -1.18880000
C        0.09060000      -0.08930000      -0.00260000
C       -1.41130000      -0.38360000       0.00100000
C       -2.25100000       0.54090000       0.92550000
C       -2.83610000       1.09520000      -0.38580000
O       -2.05820000       0.17410000      -1.18310000
C       -1.70850000      -1.86730000       0.11710000
C       -3.01980000      -2.41820000      -0.29650000
N       -1.81130000      -2.68890000      -1.09890000
H        1.90020000      -0.41320000      -1.16200000
H        0.78860000      -1.79090000      -1.18680000
H        0.42160000      -0.33950000      -2.13170000
H        0.51000000      -0.45220000       0.94550000
H        0.22320000       0.99930000      -0.00480000
H       -2.96220000       0.01800000       1.56620000
H       -1.67350000       1.24850000       1.52290000
H       -3.91270000       0.95060000      -0.53190000
H       -2.58480000       2.13730000      -0.61550000
H       -1.17850000      -2.35660000       0.93340000
H       -3.43310000      -3.28020000       0.21930000
H       -3.75220000      -1.72970000      -0.70750000
H       -1.82700000      -2.05600000      -1.89760000
