19
Properties=species:S:1:pos:R:3 gdb_111182=T pbc="F F F"
C        0.13410000       1.30630000      -0.22470000
O        0.02050000       0.03210000       0.37230000
C       -1.24030000      -0.54440000       0.20280000
C       -1.55360000      -1.35300000      -1.10420000
C       -0.53090000      -2.41210000      -0.59760000
C       -1.36440000      -2.01710000       0.65890000
C       -2.63420000      -2.11400000      -0.25980000
C       -3.87210000      -1.46070000       0.11670000
C       -4.92110000      -0.95300000       0.41610000
H        1.12830000       1.68970000       0.01590000
H        0.02610000       1.25960000      -1.31840000
H       -0.62120000       2.00480000       0.16670000
H       -2.03140000       0.13830000       0.53660000
H       -1.68690000      -0.97760000      -2.11930000
H       -0.66240000      -3.43180000      -0.96870000
H        0.51350000      -2.10730000      -0.59080000
H       -1.27360000      -2.40140000       1.67500000
H       -2.82700000      -3.12850000      -0.62010000
H       -5.84320000      -0.49960000       0.68360000
