17
Properties=species:S:1:pos:R:3 gdb_110752=T pbc="F F F"
C        0.18820000       0.85230000      -0.35690000
O       -0.43800000      -0.05140000       0.54200000
C        0.45660000      -0.68320000       1.39170000
C        0.15510000      -2.05650000       1.88990000
N       -0.43560000      -2.89150000       0.83360000
C        0.68680000      -2.67850000      -0.02910000
N        1.04590000      -3.13040000      -1.15030000
C        1.38780000      -1.79870000       0.95870000
O        2.73610000      -1.70080000       1.17260000
H        0.91020000       0.33620000      -1.00260000
H       -0.60240000       1.28730000      -0.97180000
H        0.70700000       1.65780000       0.18230000
H        0.94180000      -0.02960000       2.12250000
H        0.09430000      -2.35060000       2.92970000
H       -1.33730000      -2.58960000       0.47480000
H        0.33060000      -3.74090000      -1.55080000
H        3.12580000      -2.57110000       1.02560000
