23
Properties=species:S:1:pos:R:3 gdb_119084=T pbc="F F F"
C       -0.03900000       1.62070000       0.07860000
C        0.03650000       0.09110000       0.04550000
C       -1.34020000      -0.56030000      -0.14900000
C       -1.37860000      -2.09010000      -0.04120000
C       -0.50770000      -2.76430000      -1.09400000
O       -0.66050000      -4.17190000      -0.98550000
C       -1.23030000      -2.62960000       1.40670000
O       -2.63200000      -2.95340000       1.47890000
C       -2.82270000      -2.64470000       0.08390000
H        0.95140000       2.06670000       0.21220000
H       -0.45960000       2.01620000      -0.85260000
H       -0.67520000       1.96720000       0.90050000
H        0.71670000      -0.21600000      -0.75800000
H        0.48470000      -0.27210000       0.97960000
H       -2.03140000      -0.15620000       0.60210000
H       -1.74770000      -0.26060000      -1.12550000
H       -0.80780000      -2.40830000      -2.09420000
H        0.54410000      -2.47620000      -0.94680000
H       -0.06800000      -4.59110000      -1.61550000
H       -0.60040000      -3.52230000       1.49360000
H       -0.93810000      -1.89770000       2.17050000
H       -3.62860000      -1.91600000      -0.07110000
H       -3.01650000      -3.54410000      -0.51030000
