15
Properties=species:S:1:pos:R:3 gdb_125679=T pbc="F F F"
C       -0.13260000       1.45130000       0.21850000
C       -0.02330000      -0.03480000       0.11990000
N       -0.18260000      -0.67910000      -1.03430000
N       -0.00880000      -1.98270000      -0.74050000
C        0.26410000      -2.20940000       0.56620000
C        0.25760000      -0.96100000       1.15200000
O        0.52740000      -0.63630000       2.46350000
C       -0.32090000      -1.11100000       3.41780000
O       -0.13300000      -0.93180000       4.57940000
H        0.80130000       1.89500000       0.57860000
H       -0.36290000       1.86920000      -0.76320000
H       -0.92080000       1.74910000       0.91820000
H       -0.09110000      -2.66210000      -1.47710000
H        0.45130000      -3.19290000       0.96540000
H       -1.16970000      -1.66440000       2.97610000
