18
Properties=species:S:1:pos:R:3 gdb_14394=T pbc="F F F"
C       -0.21700000       1.62780000      -0.03220000
C        0.05970000       0.12660000       0.01670000
O       -1.07550000      -0.62580000      -0.38370000
C        1.31990000      -0.64460000      -0.34750000
C        2.68170000      -0.13270000       0.18890000
C        2.63410000       1.14750000       0.97260000
C        2.12010000      -0.12390000       1.60420000
C        0.76580000      -0.66870000       1.07800000
H        0.34560000       2.13430000      -0.82250000
H       -1.28380000       1.76140000      -0.23160000
H       -0.00370000       2.12360000       0.91700000
H       -1.18160000      -0.50260000      -1.33370000
H        1.25100000      -1.43600000      -1.08400000
H        3.61700000      -0.55550000      -0.15630000
H        3.60440000       1.44350000       1.36390000
H        2.01330000       1.98940000       0.70430000
H        2.57290000      -0.52150000       2.50360000
H        0.24400000      -1.48220000       1.56560000
