15
Properties=species:S:1:pos:R:3 gdb_9314=T pbc="F F F"
C        0.07470000       1.45460000       0.00870000
C       -0.04180000      -0.07260000       0.00200000
C       -1.49200000      -0.52080000       0.01350000
O       -1.50420000      -1.97290000       0.00610000
C       -2.70650000      -2.53950000       0.01470000
O       -3.77080000      -1.98380000       0.02770000
C       -2.57170000      -4.00350000       0.00580000
N       -2.52590000      -5.15730000      -0.00020000
H        1.12390000       1.76100000       0.00030000
H       -0.40850000       1.89680000      -0.86900000
H       -0.39180000       1.88780000       0.89980000
H        0.45090000      -0.48750000      -0.88430000
H        0.46780000      -0.49650000       0.87430000
H       -2.02580000      -0.17570000       0.90480000
H       -2.04280000      -0.16640000      -0.86360000
