18
Properties=species:S:1:pos:R:3 gdb_41091=T pbc="F F F"
C        0.05080000       1.53840000       0.15600000
O        1.51700000       1.48960000      -0.07870000
C        1.26940000       0.28080000      -0.87350000
C        1.55530000      -1.23650000      -0.71110000
C        1.63620000      -1.34470000       0.81310000
N        0.26470000      -0.84680000       1.11900000
C       -0.55730000      -1.93340000       0.46590000
C       -0.09760000      -1.39060000      -0.86760000
C        0.00620000       0.03160000      -0.16960000
H       -0.18460000       1.80440000       1.18810000
H       -0.43390000       2.21090000      -0.55990000
H        1.13370000       0.55230000      -1.92760000
H        2.25240000      -1.77320000      -1.35540000
H        1.78050000      -2.35410000       1.20520000
H        2.39600000      -0.68250000       1.23350000
H       -0.28640000      -2.94980000       0.76740000
H       -1.62210000      -1.76220000       0.64250000
H       -0.51410000      -1.60490000      -1.85120000
