20
Properties=species:S:1:pos:R:3 gdb_40013=T pbc="F F F"
C       -0.17480000       1.50000000       0.02330000
C        1.24320000       1.01230000      -0.05730000
C        0.09380000       0.01120000       0.00150000
C       -0.15340000      -0.76410000       1.29520000
C        0.21070000      -2.24300000       1.19070000
N       -0.91350000      -3.15490000       0.88550000
C        0.13590000      -2.90170000      -0.13650000
C       -0.21860000      -2.07020000      -1.31300000
C       -0.20760000      -0.73710000      -1.24610000
H       -0.51750000       1.92980000       0.95920000
H       -0.61550000       1.95250000      -0.85930000
H        1.77390000       1.12290000      -0.99670000
H        1.87220000       1.10340000       0.82230000
H        0.39840000      -0.29680000       2.11780000
H       -1.21830000      -0.70250000       1.54570000
H        0.96610000      -2.60340000       1.88410000
H       -0.74350000      -4.06130000       1.31680000
H        0.82540000      -3.72020000      -0.33600000
H       -0.45590000      -2.57510000      -2.24520000
H       -0.41860000      -0.14510000      -2.13440000
