19
Properties=species:S:1:pos:R:3 gdb_114946=T pbc="F F F"
O       -0.12190000       1.48200000      -0.06620000
C        0.00590000       0.07740000       0.09640000
C       -1.38610000      -0.54570000       0.01130000
C       -2.03380000      -0.28170000      -1.37980000
C       -1.86770000      -1.58720000      -2.10400000
C       -1.46950000      -2.57450000      -1.28800000
C       -1.29890000      -2.09310000       0.13530000
C       -1.25080000      -3.95810000      -1.70930000
O       -0.90960000      -4.85270000      -0.96570000
H        0.75880000       1.86760000      -0.07340000
H        0.65010000      -0.35880000      -0.68540000
H        0.45530000      -0.17100000       1.07050000
H       -1.99100000      -0.11010000       0.81090000
H       -3.09970000      -0.02810000      -1.29620000
H       -1.56390000       0.56390000      -1.89270000
H       -2.07230000      -1.71150000      -3.16330000
H       -0.35260000      -2.43210000       0.57150000
H       -2.08910000      -2.50230000       0.77570000
H       -1.42090000      -4.14490000      -2.79390000
