21
Properties=species:S:1:pos:R:3 gdb_99639=T pbc="F F F"
C       -0.45200000       0.59120000       3.48110000
C       -0.46440000      -0.71530000       2.68600000
C       -1.64900000      -0.83300000       1.69590000
C       -1.61850000       0.25920000       0.71320000
N       -1.58270000       1.11720000      -0.06090000
C       -1.63140000      -2.18610000       0.98520000
C       -2.34270000      -3.35160000       1.58710000
N       -2.79160000      -2.77340000       0.32850000
C       -4.06610000      -2.06940000       0.30280000
H        0.40110000       0.61710000       4.16510000
H       -0.37910000       1.45870000       2.81850000
H       -1.36290000       0.70100000       4.07970000
H        0.47140000      -0.82430000       2.12600000
H       -0.52700000      -1.57310000       3.36440000
H       -2.58040000      -0.72810000       2.26360000
H       -0.70020000      -2.36360000       0.44870000
H       -1.92050000      -4.35190000       1.53880000
H       -2.93870000      -3.15490000       2.47970000
H       -4.34960000      -1.59590000       1.25640000
H       -4.03800000      -1.29760000      -0.47170000
H       -4.85070000      -2.78660000       0.04390000
