13
Properties=species:S:1:pos:R:3 gdb_24959=T pbc="F F F"
O       -0.00000000      -0.00300000      -0.06150000
C       -0.03370000       1.19330000      -0.04760000
N       -1.16340000       2.02470000      -0.07970000
C       -0.71880000       3.32790000       0.12260000
C        0.64250000       3.30790000       0.12470000
O        1.09040000       2.00620000       0.01970000
C        1.13010000       4.63080000       0.02740000
C       -0.00360000       5.42160000      -0.02260000
N       -1.14050000       4.61820000      -0.01740000
H       -2.05660000       1.63130000       0.16620000
H        2.14970000       4.97800000       0.01340000
H       -0.10200000       6.49400000       0.00640000
H       -2.08120000       4.96040000       0.06790000
