18
Properties=species:S:1:pos:R:3 gdb_75246=T pbc="F F F"
C        0.04620000       1.47300000       0.06850000
C       -0.04260000      -0.01830000      -0.06830000
N       -0.09000000      -0.58740000      -1.20010000
C       -0.10800000      -2.04370000      -1.27440000
C        0.25700000      -2.71740000       0.02970000
C        0.63770000      -4.12920000       0.11160000
O        1.63130000      -3.10560000       0.18820000
C       -0.34310000      -2.00560000       1.21270000
O       -0.05150000      -0.60450000       1.16630000
H        0.94070000       1.74390000       0.63830000
H        0.08620000       1.92860000      -0.91980000
H       -0.81730000       1.85710000       0.62090000
H       -1.10660000      -2.36720000      -1.60060000
H        0.59540000      -2.36230000      -2.05120000
H        0.46620000      -4.68870000       1.03140000
H        0.65070000      -4.73150000      -0.79640000
H       -1.43370000      -2.14020000       1.22640000
H        0.07480000      -2.37640000       2.15070000
