16
Properties=species:S:1:pos:R:3 gdb_15924=T pbc="F F F"
N        0.00450000      -1.13970000      -0.44640000
C       -0.01290000      -0.00320000      -0.22750000
C       -0.02250000       1.41060000       0.04350000
C       -0.53160000       2.36370000      -1.09250000
C        0.84390000       3.09690000      -1.10850000
C        1.27300000       2.30980000       0.14620000
N        0.73350000       2.90200000       1.39480000
C       -0.34020000       1.88090000       1.48760000
H       -0.78950000       1.84900000      -2.01870000
H       -1.38210000       2.97300000      -0.78010000
H        1.43860000       2.83900000      -1.98890000
H        0.82620000       4.18070000      -0.98420000
H        2.28270000       1.89720000       0.19950000
H        1.38050000       2.89080000       2.17310000
H       -1.34360000       2.28880000       1.65270000
H       -0.15240000       1.08790000       2.22080000
