18
Properties=species:S:1:pos:R:3 gdb_73658=T pbc="F F F"
O        0.15760000       1.33650000      -0.18500000
C        0.10170000      -0.05290000      -0.04560000
C        0.80760000      -0.76810000      -1.20950000
C        0.12060000      -2.13970000      -1.33950000
C       -1.35350000      -1.86070000      -0.96890000
C       -1.26220000      -0.81310000       0.12320000
O       -0.75540000      -1.37810000       1.39260000
C        0.38170000      -0.61080000       1.33800000
N        1.27840000      -0.38810000       2.18770000
H        0.32850000       1.71780000       0.68320000
H        0.62880000      -0.15580000      -2.10080000
H        1.88770000      -0.82800000      -1.05740000
H        0.23000000      -2.57170000      -2.33670000
H        0.55290000      -2.85040000      -0.62800000
H       -1.88850000      -1.42420000      -1.82120000
H       -1.90350000      -2.75080000      -0.65130000
H       -2.15390000      -0.21450000       0.31280000
H        1.10780000      -0.89170000       3.06010000
