19
Properties=species:S:1:pos:R:3 gdb_97987=T pbc="F F F"
O        0.21520000       0.77190000       1.08140000
C       -0.06000000       0.20770000      -0.19620000
C       -1.40100000      -0.36160000      -0.20410000
C       -2.50960000      -0.82970000      -0.23180000
C       -3.84060000      -1.42370000      -0.24950000
C       -3.82950000      -2.94230000       0.01170000
C       -5.25150000      -3.53640000      -0.00850000
C       -5.26800000      -4.97390000       0.23070000
C       -5.25440000      -6.15910000       0.42980000
H        1.10700000       1.13300000       1.04800000
H        0.01320000       0.96900000      -0.99040000
H        0.66790000      -0.58170000      -0.44650000
H       -4.46790000      -0.92770000       0.50380000
H       -4.31950000      -1.22230000      -1.21760000
H       -3.21450000      -3.44010000      -0.74430000
H       -3.36180000      -3.14370000       0.98010000
H       -5.86910000      -3.03310000       0.74750000
H       -5.72440000      -3.32180000      -0.97640000
H       -5.25330000      -7.20610000       0.60560000
