20
Properties=species:S:1:pos:R:3 gdb_40057=T pbc="F F F"
C        0.07000000       1.52980000      -0.00960000
N        1.27770000       0.67990000       0.04650000
C       -0.04790000       0.05630000       0.02280000
C       -0.47090000      -0.80640000       1.22290000
C       -1.13380000      -1.99650000       0.48940000
C       -2.51210000      -1.57210000      -0.06650000
C       -2.08380000      -0.66750000      -1.26170000
C       -0.54190000      -0.76750000      -1.16780000
O       -0.33980000      -2.11040000      -0.70580000
H       -0.11820000       2.11670000       0.88580000
H       -0.16360000       2.04580000      -0.93920000
H        1.71280000       0.63010000      -0.87250000
H        0.41440000      -1.12370000       1.77850000
H       -1.15120000      -0.29620000       1.91030000
H       -1.11660000      -2.94340000       1.02840000
H       -3.07260000      -2.44420000      -0.41020000
H       -3.12060000      -1.04840000       0.67500000
H       -2.43490000      -1.07220000      -2.21360000
H       -2.44210000       0.36100000      -1.17650000
H        0.00060000      -0.60400000      -2.10110000
