13
Properties=species:S:1:pos:R:3 gdb_4318=T pbc="F F F"
N       -0.01330000       1.34780000      -0.09150000
C        0.01480000      -0.01180000      -0.03720000
N       -1.14570000      -0.63210000      -0.01910000
C       -1.20070000      -2.00110000      -0.00750000
O       -2.21160000      -2.67140000       0.00500000
N        0.05790000      -2.67550000      -0.00370000
C        1.24740000      -2.03530000      -0.01520000
C        1.28790000      -0.68030000      -0.03360000
H        0.80930000       1.88000000       0.13020000
H       -0.90980000       1.78310000       0.05450000
H       -0.00040000      -3.68240000       0.01070000
H        2.13690000      -2.65550000      -0.01010000
H        2.22420000      -0.14070000      -0.05270000
