18
Properties=species:S:1:pos:R:3 gdb_33538=T pbc="F F F"
N        0.38640000      -1.24600000      -0.08960000
C        0.20990000      -0.10370000      -0.04740000
C       -0.01760000       1.33750000      -0.00420000
C       -0.30270000       1.85700000       1.44770000
C        1.19040000       2.25270000       1.57820000
C        1.33020000       2.14810000       0.03860000
C       -0.99340000       1.72310000      -1.10330000
C       -2.43150000       1.87360000      -0.86410000
O       -1.57500000       3.01680000      -0.99380000
H       -0.95370000       2.73160000       1.39100000
H       -0.70760000       1.13510000       2.15770000
H        1.40700000       3.22180000       2.03020000
H        1.77330000       1.48560000       2.09320000
H        2.21400000       1.65410000      -0.36680000
H        1.18970000       3.11140000      -0.45680000
H       -0.66100000       1.46140000      -2.10860000
H       -3.13290000       1.72140000      -1.68160000
H       -2.83090000       1.70520000       0.13410000
