21
Properties=species:S:1:pos:R:3 gdb_65923=T pbc="F F F"
C       -0.08100000       1.64080000      -0.01660000
C        0.01950000       0.11850000      -0.00450000
C        1.04010000      -0.50580000      -0.99610000
O        1.69710000      -1.22690000       0.06420000
C        0.96440000      -0.49490000       1.06600000
C       -1.32180000      -0.61820000      -0.04940000
C       -2.41890000      -0.16660000       0.94400000
O       -3.19890000       0.41710000      -0.11910000
C       -2.34680000      -0.17460000      -1.12070000
H        0.91770000       2.08660000       0.02080000
H       -0.57320000       2.01000000      -0.92150000
H       -0.64420000       2.01970000       0.84170000
H        0.64050000      -1.17680000      -1.76640000
H        1.71040000       0.22410000      -1.47130000
H        1.59820000       0.24010000       1.58150000
H        0.50940000      -1.15800000       1.81210000
H       -1.12520000      -1.69360000      -0.03840000
H       -2.95220000      -0.99190000       1.43450000
H       -2.13830000       0.57110000       1.70460000
H       -2.01380000       0.55730000      -1.86560000
H       -2.84450000      -1.00400000      -1.64060000
