20
Properties=species:S:1:pos:R:3 gdb_78360=T pbc="F F F"
C        0.39750000       1.62640000       0.46760000
C        0.24670000       0.15060000       0.19080000
C        0.94000000      -0.46800000      -0.96150000
N        1.45680000      -0.65120000       0.46050000
C        1.07630000      -2.11930000       0.37830000
C        0.20290000      -2.68070000       1.48540000
C        0.55720000      -1.92430000      -1.05480000
C       -0.45800000      -2.60580000      -1.86030000
O        0.94770000      -2.76940000      -2.11660000
H        1.38930000       1.97440000       0.16670000
H       -0.35570000       2.20380000      -0.07870000
H        0.27790000       1.83240000       1.53610000
H       -0.71730000      -0.26880000       0.47620000
H        1.49030000       0.09170000      -1.71090000
H        2.01570000      -2.67910000       0.32590000
H       -0.76660000      -2.17910000       1.55180000
H        0.01700000      -3.74650000       1.31580000
H        0.70680000      -2.57740000       2.45180000
H       -0.96310000      -3.48760000      -1.46790000
H       -1.01000000      -2.05270000      -2.61930000
