19
Properties=species:S:1:pos:R:3 gdb_67105=T pbc="F F F"
C       -0.11620000       1.53200000      -0.08310000
C       -0.03530000       0.03570000      -0.14910000
C        0.75470000      -0.89890000      -1.09860000
C        2.23440000      -0.82090000      -0.58260000
C        2.06360000      -0.81060000       0.99490000
C        0.55860000      -0.90040000       0.94930000
O       -0.64690000      -0.95100000       1.75660000
C       -1.09980000      -0.99190000       0.32190000
C        0.06710000      -1.89080000      -0.13860000
H        0.87690000       1.98990000      -0.15530000
H       -0.72810000       1.94000000      -0.89490000
H       -0.56400000       1.83790000       0.86860000
H        0.61060000      -0.91630000      -2.17970000
H        2.82100000      -1.68280000      -0.91350000
H        2.74350000       0.08010000      -0.93720000
H        2.54800000      -1.66330000       1.47690000
H        2.43710000       0.11000000       1.45130000
H       -2.17680000      -1.05550000       0.17020000
H        0.13730000      -2.97620000      -0.07810000
