22
Properties=species:S:1:pos:R:3 gdb_100826=T pbc="F F F"
C        0.63550000       0.78240000      -1.06400000
C       -0.08010000       0.32790000       0.21140000
C       -1.30090000      -0.53630000      -0.16650000
O       -0.89470000      -1.75100000      -0.75910000
N        0.78260000      -0.48990000       1.10110000
C        2.20420000      -0.15090000       1.11210000
C        0.27820000      -0.55380000       2.46710000
C        0.76310000      -1.80220000       3.18870000
O        0.96790000      -1.86970000       4.37120000
H        0.97200000      -0.07780000      -1.64870000
H       -0.06950000       1.34750000      -1.68030000
H        1.48730000       1.43410000      -0.85950000
H       -0.43460000       1.22750000       0.74580000
H       -1.93700000      -0.71690000       0.71570000
H       -1.91840000      -0.00050000      -0.89520000
H       -0.14630000      -2.04360000      -0.21830000
H        2.40220000       0.87770000       1.46170000
H        2.72730000      -0.83280000       1.79040000
H        2.64340000      -0.27450000       0.12210000
H        0.53290000       0.33070000       3.07530000
H       -0.81630000      -0.62540000       2.45050000
H        0.89150000      -2.68110000       2.51490000
