18
Properties=species:S:1:pos:R:3 gdb_47945=T pbc="F F F"
O       -0.03090000      -0.00940000      -0.21190000
C       -0.00540000       1.17760000       0.00270000
N       -1.08700000       1.95890000       0.27830000
C       -1.09030000       3.41230000       0.14430000
C       -0.92650000       3.94000000      -1.29490000
O        0.39000000       3.93610000      -1.81260000
C        0.90320000       2.70000000      -2.27410000
C        1.80530000       2.02720000      -1.23620000
O        1.14030000       1.93620000       0.02270000
H       -1.96850000       1.47060000       0.25130000
H       -2.05370000       3.76680000       0.52560000
H       -0.30540000       3.83850000       0.77300000
H       -1.60570000       3.38680000      -1.96360000
H       -1.23260000       4.99240000      -1.30340000
H        0.08620000       2.02230000      -2.56240000
H        1.49710000       2.90080000      -3.17460000
H        2.11680000       1.03590000      -1.58790000
H        2.69070000       2.63770000      -1.04650000
