19
Properties=species:S:1:pos:R:3 gdb_111861=T pbc="F F F"
C        0.25570000       1.23900000       0.21570000
O       -0.40140000       0.12800000      -0.36330000
C        0.37940000      -0.53990000      -1.29560000
C        1.38990000      -1.61550000      -0.91710000
C        1.30030000      -2.24560000       0.46020000
O       -0.06360000      -2.60080000       0.66440000
C       -0.70240000      -2.77650000      -0.58900000
C        0.09320000      -1.97320000      -1.61300000
O        0.09090000      -2.42000000      -2.93340000
H        1.18090000       0.94370000       0.72910000
H        0.50710000       1.99740000      -0.54160000
H       -0.43350000       1.67660000       0.94120000
H        0.68010000       0.06560000      -2.15450000
H        2.33170000      -1.64450000      -1.45280000
H        1.95510000      -3.13120000       0.49820000
H        1.58510000      -1.58000000       1.28240000
H       -0.69450000      -3.82850000      -0.91620000
H       -1.74150000      -2.44910000      -0.47510000
H       -0.70050000      -2.07830000      -3.36380000
