23
Properties=species:S:1:pos:R:3 gdb_55452=T pbc="F F F"
C       -0.03260000       1.51180000       0.01500000
C        0.06520000      -0.00340000      -0.01630000
O        1.13190000      -0.57130000      -0.08890000
C       -1.25310000      -0.77490000       0.02500000
C       -1.73680000      -1.01540000      -1.42740000
C       -3.03950000      -1.82620000      -1.46050000
C       -2.89400000      -3.15440000      -0.70550000
C       -2.41260000      -2.92510000       0.73370000
C       -1.11280000      -2.11060000       0.77320000
H        0.94100000       1.95730000      -0.19290000
H       -0.77490000       1.87430000      -0.70420000
H       -0.37290000       1.83270000       1.00720000
H       -2.00530000      -0.15020000       0.52770000
H       -1.87350000      -0.06010000      -1.94790000
H       -0.94960000      -1.55830000      -1.96640000
H       -3.84570000      -1.23460000      -1.00450000
H       -3.33600000      -2.00720000      -2.49990000
H       -3.84570000      -3.69740000      -0.70700000
H       -2.16970000      -3.79080000      -1.23220000
H       -3.19430000      -2.39430000       1.29560000
H       -2.26490000      -3.88440000       1.24250000
H       -0.29480000      -2.67590000       0.31300000
H       -0.81110000      -1.92510000       1.81040000
