17
Properties=species:S:1:pos:R:3 gdb_32959=T pbc="F F F"
C       -0.11560000       1.32990000       0.03190000
O       -0.20740000      -0.06910000       0.17390000
C        0.76080000      -0.59560000       1.06410000
C        0.62790000      -2.08160000       1.06850000
N        0.91190000      -2.89570000       2.05230000
C        0.68820000      -4.17220000       1.56500000
C        0.25480000      -4.09730000       0.26770000
O       -0.12610000      -4.99500000      -0.67300000
N        0.22950000      -2.76620000      -0.05320000
H        0.86930000       1.63710000      -0.35360000
H       -0.88670000       1.63690000      -0.67850000
H       -0.28650000       1.84700000       0.98830000
H        1.77030000      -0.28800000       0.73600000
H        0.62490000      -0.22160000       2.08920000
H        0.84320000      -5.05160000       2.17080000
H       -0.09960000      -5.87340000      -0.28140000
H       -0.11910000      -2.35490000      -0.90310000
