18
Properties=species:S:1:pos:R:3 gdb_117585=T pbc="F F F"
O       -0.10620000       1.47370000       0.04400000
C        0.00240000       0.06170000       0.06470000
C       -1.36730000      -0.61810000      -0.01450000
C       -1.29700000      -2.16160000      -0.08990000
C       -0.64690000      -2.72240000       1.09910000
N       -0.12650000      -3.16240000       2.03250000
C       -2.69060000      -2.74760000      -0.30070000
C       -3.17650000      -3.97630000       0.33520000
O       -3.58300000      -2.68230000       0.80170000
H       -0.48920000       1.75480000       0.88110000
H        0.60120000      -0.20390000      -0.81440000
H        0.55200000      -0.29060000       0.94960000
H       -1.97680000      -0.34240000       0.85370000
H       -1.88950000      -0.25360000      -0.90570000
H       -0.68490000      -2.44590000      -0.95750000
H       -3.12730000      -2.45050000      -1.25580000
H       -3.95390000      -4.55780000      -0.15710000
H       -2.52760000      -4.52720000       1.01190000
