25
Properties=species:S:1:pos:R:3 gdb_101675=T pbc="F F F"
C        0.30740000       1.76180000       0.23940000
C        0.17840000       0.23800000       0.14080000
C        0.83220000      -0.53760000       1.30120000
C        0.12250000      -0.27210000       2.63680000
C        0.87340000      -2.05330000       1.01870000
C        1.87200000      -2.49140000      -0.05300000
O        3.21720000      -2.10630000       0.26900000
C        1.84520000      -4.00060000      -0.31130000
O        2.82770000      -4.37070000      -1.25340000
H        1.35890000       2.06380000       0.30180000
H       -0.12460000       2.24690000      -0.64140000
H       -0.20650000       2.16340000       1.11780000
H       -0.88400000      -0.03890000       0.08430000
H        0.62530000      -0.08410000      -0.80680000
H        1.87240000      -0.19630000       1.38950000
H       -0.92110000      -0.60820000       2.59970000
H        0.61250000      -0.80710000       3.45740000
H        0.12000000       0.79070000       2.89420000
H        1.12200000      -2.58570000       1.94950000
H       -0.12840000      -2.40370000       0.73360000
H        1.67290000      -1.98540000      -1.00400000
H        3.40360000      -2.42360000       1.16120000
H        1.98600000      -4.53120000       0.64950000
H        0.87080000      -4.30370000      -0.71070000
H        3.60210000      -3.83660000      -1.03160000
