21
Properties=species:S:1:pos:R:3 gdb_90042=T pbc="F F F"
C       -0.46710000       1.52090000      -0.02010000
C       -0.01400000       0.06750000      -0.04970000
C        1.24380000      -0.30080000      -0.96350000
C        2.00760000      -0.48990000       0.34860000
C        2.86690000      -1.10460000       1.47330000
C        1.87980000       0.00560000       2.06550000
C        1.87700000       0.59600000       3.44460000
O        2.27340000       0.86340000       0.94330000
C        0.73450000      -0.59100000       1.18650000
H        0.36510000       2.18790000       0.20550000
H       -0.89790000       1.80960000      -0.98620000
H       -1.24240000       1.66460000       0.74090000
H       -0.86830000      -0.56700000      -0.30390000
H        1.08570000      -1.22930000      -1.51770000
H        1.63460000       0.46960000      -1.63290000
H        2.68260000      -2.15260000       1.72520000
H        3.92390000      -0.83290000       1.51180000
H        2.87400000       0.96370000       3.70700000
H        1.17260000       1.43160000       3.49620000
H        1.57740000      -0.15640000       4.18050000
H        0.36160000      -1.57970000       1.46270000
