22
Properties=species:S:1:pos:R:3 gdb_6839=T pbc="F F F"
C       -0.11110000       1.64830000      -0.02760000
C       -0.10510000       0.15600000       0.32420000
C       -1.41730000      -0.52970000      -0.03660000
C       -1.72620000      -0.79670000      -1.52390000
O       -2.01410000      -2.18340000      -1.27060000
C       -1.59270000      -2.07540000       0.12320000
C       -0.32710000      -2.89540000       0.35300000
C       -2.71620000      -2.50700000       1.05610000
H        0.83990000       2.12190000       0.23430000
H       -0.27410000       1.80350000      -1.10000000
H       -0.90730000       2.17800000       0.50700000
H        0.72830000      -0.33410000      -0.19300000
H        0.08630000       0.03630000       1.39850000
H       -2.24250000      -0.00360000       0.45560000
H       -2.58380000      -0.27050000      -1.95920000
H       -0.86260000      -0.67290000      -2.19420000
H        0.45850000      -2.62710000      -0.35750000
H        0.05990000      -2.75530000       1.36790000
H       -0.55080000      -3.95850000       0.21810000
H       -2.93270000      -3.57280000       0.92890000
H       -2.43830000      -2.33770000       2.10270000
H       -3.63070000      -1.94580000       0.84430000
