17
Properties=species:S:1:pos:R:3 gdb_16455=T pbc="F F F"
C       -0.01140000       1.51620000       0.00230000
C        0.08670000       0.01040000       0.02330000
C        0.47210000      -0.69840000      -1.26740000
C        0.35500000      -1.99070000      -0.96880000
C       -0.08780000      -1.95660000       0.47560000
C        0.68170000      -0.82280000       1.21720000
C       -0.62310000      -0.56220000       1.97380000
N       -1.14960000      -0.81500000       0.55780000
H        0.94770000       1.95170000      -0.29830000
H       -0.76720000       1.83430000      -0.72330000
H       -0.27960000       1.93970000       0.97290000
H        0.73980000      -0.21470000      -2.19670000
H        0.50030000      -2.86890000      -1.58090000
H       -0.35950000      -2.87570000       0.99590000
H        1.71850000      -0.83370000       1.58060000
H       -0.95110000      -1.31760000       2.69360000
H       -0.82580000       0.43950000       2.35770000
