16
Properties=species:S:1:pos:R:3 gdb_123895=T pbc="F F F"
C        0.00960000       1.41760000       0.00380000
C        1.44940000       1.94210000      -0.01150000
N        2.14910000       1.23490000      -1.06650000
N        3.33280000       1.62800000      -1.59870000
C        3.56850000       0.66230000      -2.47430000
N        2.62620000      -0.31980000      -2.53410000
C        1.75040000       0.07560000      -1.62590000
C        0.45820000      -0.55750000      -1.20470000
O       -0.01110000       0.00080000       0.01330000
H       -0.50190000       1.74770000       0.91070000
H       -0.54020000       1.80730000      -0.86760000
H        1.48030000       3.01580000      -0.21480000
H        1.94240000       1.75450000       0.94850000
H        4.45360000       0.66580000      -3.09290000
H       -0.29290000      -0.43790000      -2.00280000
H        0.59600000      -1.62810000      -1.03520000
