17
Properties=species:S:1:pos:R:3 gdb_40598=T pbc="F F F"
C        0.16070000       1.57100000      -0.02990000
O        1.24070000       0.64210000      -0.12410000
C       -0.09160000       0.12380000      -0.03620000
C       -0.43130000      -0.63170000       1.21500000
C       -1.87530000      -1.16940000       1.38010000
C       -1.59540000      -2.42530000       0.49050000
O       -2.08540000      -3.38250000       1.47360000
C       -1.39020000      -2.36720000       2.25440000
C       -0.23720000      -2.16850000       1.22320000
H        0.09780000       2.12040000       0.90900000
H       -0.03250000       2.16040000      -0.92530000
H       -0.45200000      -0.31820000      -0.96760000
H       -0.02290000      -0.11370000       2.08920000
H       -2.81830000      -0.63090000       1.47380000
H       -1.80900000      -2.60890000      -0.56150000
H       -1.34940000      -2.46810000       3.33840000
H        0.67530000      -2.75730000       1.13790000
