21
Properties=species:S:1:pos:R:3 gdb_105465=T pbc="F F F"
O       -0.02200000       1.43360000      -0.59370000
C        0.00610000       0.10820000      -0.08520000
C       -1.37920000      -0.49410000       0.06170000
C       -2.34140000       0.26840000       0.95890000
C       -1.94520000       0.23550000       2.45250000
C       -2.92270000       0.89880000       3.30600000
C       -3.74800000       1.44930000       3.98510000
C       -1.94820000      -1.17070000      -1.16900000
C       -1.48620000      -1.99850000       0.00500000
H       -0.49860000       1.40880000      -1.43060000
H        0.62390000      -0.55080000      -0.71640000
H        0.50850000       0.18200000       0.88560000
H       -2.39460000       1.31120000       0.62990000
H       -3.34810000      -0.15040000       0.85690000
H       -1.82460000      -0.80720000       2.77380000
H       -0.96710000       0.71250000       2.58870000
H       -4.46680000       1.93540000       4.59660000
H       -3.01450000      -1.09090000      -1.35130000
H       -1.34440000      -1.19350000      -2.07140000
H       -0.57600000      -2.57880000      -0.10640000
H       -2.24240000      -2.47600000       0.61940000
