23
Properties=species:S:1:pos:R:3 gdb_114126=T pbc="F F F"
C       -0.09780000       1.48160000      -0.20640000
C       -0.01010000       0.00620000       0.19780000
C       -1.34610000      -0.70470000       0.07810000
O       -1.89650000      -0.70100000      -1.27690000
C       -2.13280000      -2.11870000      -1.20020000
C       -3.41540000      -2.63200000      -1.77620000
C       -3.48800000      -2.43150000      -3.29660000
C       -0.82400000      -2.84080000      -1.10120000
C       -1.44610000      -2.22750000       0.14340000
H        0.87690000       1.97220000      -0.12790000
H       -0.44590000       1.57320000      -1.23900000
H       -0.79990000       2.02800000       0.43340000
H        0.73440000      -0.50660000      -0.42100000
H        0.32690000      -0.08420000       1.23910000
H       -2.07910000      -0.23690000       0.75130000
H       -3.50890000      -3.69590000      -1.52840000
H       -4.25480000      -2.11550000      -1.29450000
H       -4.44630000      -2.78010000      -3.69270000
H       -3.37910000      -1.37280000      -3.54840000
H       -2.68900000      -2.98160000      -3.80410000
H       -0.88370000      -3.92470000      -1.13300000
H        0.06810000      -2.41880000      -1.55420000
H       -1.70150000      -2.80830000       1.02000000
