17
Properties=species:S:1:pos:R:3 gdb_30029=T pbc="F F F"
C       -0.09120000       1.58280000       0.00060000
C        0.00310000       0.04600000       0.00980000
C        0.80420000      -0.51470000      -1.16430000
C        1.84970000      -1.26680000      -0.77300000
C        1.87680000      -1.31260000       0.68320000
C        2.52720000      -1.79560000       1.77270000
O        1.89700000      -1.35850000       2.90630000
C        0.82980000      -0.58930000       2.52200000
C        0.77230000      -0.53010000       1.17250000
H        0.90580000       2.03080000       0.03570000
H       -0.59530000       1.93650000      -0.90460000
H       -0.65790000       1.94200000       0.86510000
H       -1.01940000      -0.35790000      -0.02180000
H        0.53440000      -0.30030000      -2.19190000
H        2.55550000      -1.75980000      -1.42900000
H        3.38920000      -2.42060000       1.93390000
H        0.24520000      -0.18310000       3.33070000
