20
Properties=species:S:1:pos:R:3 gdb_92782=T pbc="F F F"
C        0.19870000       1.56110000      -0.22690000
C       -0.02770000       0.07100000       0.04490000
N        0.51240000      -0.74710000      -1.06770000
C        1.71400000      -1.27490000      -0.69300000
C        1.94040000      -1.18620000       0.64140000
C        3.07730000      -1.76580000       1.30550000
O        3.28040000      -1.77250000       2.50880000
C        0.73390000      -0.51440000       1.28770000
C        1.05380000       0.47730000       2.41010000
H        1.26420000       1.78850000      -0.33020000
H       -0.30650000       1.85940000      -1.15250000
H       -0.20700000       2.17410000       0.58220000
H       -1.10270000      -0.11300000       0.13590000
H        0.38070000      -0.42550000      -2.01540000
H        2.35240000      -1.74110000      -1.43500000
H        3.80950000      -2.23990000       0.60910000
H        0.10070000      -1.30350000       1.71760000
H        1.69220000       1.29460000       2.06250000
H        0.13910000       0.91060000       2.82870000
H        1.59080000      -0.04580000       3.20280000
