19
Properties=species:S:1:pos:R:3 gdb_68459=T pbc="F F F"
C       -0.07490000       1.53390000       0.03930000
C        0.01080000       0.02530000       0.00510000
C        0.75580000      -0.69320000      -1.15970000
C       -0.32870000      -1.77460000      -0.96360000
C        0.08450000      -2.70690000       0.16490000
O        0.52310000      -1.97030000       1.32150000
C        0.48940000      -0.59980000       1.30240000
N        0.82840000       0.08270000       2.31210000
N       -1.22400000      -0.70070000      -0.45590000
H        0.90810000       1.97220000       0.22820000
H       -0.45930000       1.89650000      -0.91770000
H       -0.74030000       1.86810000       0.83960000
H        0.62980000      -0.14870000      -2.09600000
H        1.80000000      -0.97280000      -1.01090000
H       -0.69800000      -2.33610000      -1.82710000
H       -0.75670000      -3.33750000       0.48060000
H        0.90830000      -3.36360000      -0.14020000
H        1.10730000      -0.53410000       3.07860000
H       -1.84890000      -0.98930000       0.29660000
