17
Properties=species:S:1:pos:R:3 gdb_60759=T pbc="F F F"
C        0.76180000       1.61120000      -0.34170000
C        0.23280000       0.40710000       0.44390000
C       -0.53070000      -0.55060000      -0.46720000
O       -0.62840000      -1.74480000      -0.33810000
C        1.32420000      -0.28140000       1.26570000
O        2.48140000       0.05180000       1.17180000
C        0.91260000      -1.40130000       2.21140000
C       -0.10340000      -1.04570000       3.27940000
O       -0.83450000      -0.08720000       3.27520000
H        1.54550000       1.31140000      -1.04200000
H       -0.04740000       2.08860000      -0.90250000
H        1.19290000       2.34980000       0.33600000
H       -0.52290000       0.73670000       1.17590000
H       -1.03800000      -0.03150000      -1.31070000
H        0.45200000      -2.20050000       1.61140000
H        1.80940000      -1.81020000       2.68710000
H       -0.14120000      -1.78160000       4.11180000
