14
Properties=species:S:1:pos:R:3 gdb_29370=T pbc="F F F"
O       -0.03910000       1.37870000       0.13650000
C        0.02890000       0.01100000       0.02700000
C        0.05340000      -0.80400000      -1.09540000
N        0.07070000      -2.09150000      -0.66690000
C        0.03980000      -2.14680000       0.71510000
C        0.04750000      -3.41430000       1.39340000
O        0.08380000      -4.48580000       0.80770000
C        0.01640000      -0.82630000       1.16340000
O       -0.01380000      -0.41660000       2.44990000
H        0.63040000       1.78310000      -0.42390000
H        0.06260000      -0.54750000      -2.14270000
H        0.09770000      -2.92970000      -1.22340000
H        0.01790000      -3.35490000       2.49920000
H       -0.01740000       0.54920000       2.43920000
