16
Properties=species:S:1:pos:R:3 gdb_10938=T pbc="F F F"
C        0.06790000       1.52200000       0.05520000
C       -0.03390000       0.02990000      -0.03660000
C       -0.88240000      -0.79890000       0.84170000
N        0.58620000      -0.90970000       0.99860000
C        1.01350000      -1.81120000      -0.13760000
C        0.48500000      -0.80740000      -1.20770000
C        2.45480000      -2.02510000      -0.15430000
N        3.59660000      -2.19800000      -0.19750000
H        1.06450000       1.86870000      -0.23660000
H       -0.66480000       1.99980000      -0.60560000
H       -0.12500000       1.86060000       1.07700000
H       -1.35080000      -0.31330000       1.69190000
H       -1.43710000      -1.64750000       0.44460000
H        0.51480000      -2.78610000      -0.11380000
H       -0.25160000      -1.18340000      -1.92220000
H        1.29860000      -0.32460000      -1.75050000
