18
Properties=species:S:1:pos:R:3 gdb_110814=T pbc="F F F"
O        0.39760000       0.83590000       1.07530000
C        0.08950000       0.00260000      -0.03350000
C       -1.30660000      -0.58080000       0.04250000
C       -1.67470000      -2.00280000      -0.13640000
C       -0.58640000      -2.96530000       0.37710000
C       -0.71180000      -2.19000000       1.73000000
N       -1.82900000      -1.32520000       1.21050000
C       -0.98380000      -4.35810000       0.42840000
C       -1.32100000      -5.51130000       0.47300000
H       -0.35130000       1.42210000       1.22580000
H        0.18070000       0.55000000      -0.98480000
H        0.86280000      -0.76940000      -0.04020000
H       -2.07450000       0.11030000      -0.30610000
H       -2.52850000      -2.32070000      -0.72600000
H        0.37880000      -2.88130000      -0.13430000
H       -1.08410000      -2.81970000       2.53770000
H        0.16330000      -1.63000000       2.06670000
H       -1.61380000      -6.53110000       0.51290000
