17
Properties=species:S:1:pos:R:3 gdb_117477=T pbc="F F F"
C       -0.24190000       1.36740000       0.29440000
O       -0.15640000      -0.03370000       0.43060000
C       -1.20580000      -0.69900000      -0.19990000
C       -1.02690000      -2.19640000      -0.02700000
O       -0.11650000      -2.74870000       0.52010000
O       -2.08270000      -2.82750000      -0.60970000
C       -2.09130000      -4.25600000      -0.56390000
C       -3.28350000      -4.73480000       0.24510000
O       -3.75050000      -5.83660000       0.14440000
H        0.61680000       1.79300000       0.81730000
H       -0.20790000       1.67710000      -0.76180000
H       -1.16660000       1.76540000       0.74090000
H       -2.19040000      -0.41890000       0.21220000
H       -1.24970000      -0.48410000      -1.28180000
H       -2.15200000      -4.64220000      -1.58450000
H       -1.16830000      -4.61430000      -0.09390000
H       -3.68240000      -3.97620000       0.95560000
