16
Properties=species:S:1:pos:R:3 gdb_21224=T pbc="F F F"
C       -0.01980000       1.42650000       0.01890000
N       -0.12810000      -0.02330000       0.09030000
C        0.59070000      -0.69470000       1.05220000
N        1.18570000      -0.06270000       2.04360000
O        1.73720000      -1.07580000       2.84350000
C        1.46070000      -2.26090000       2.28400000
C        0.73900000      -2.12190000       1.14570000
C        0.20020000      -3.15710000       0.21300000
H        1.00400000       1.77250000      -0.18080000
H       -0.68390000       1.79190000      -0.76750000
H       -0.33350000       1.85700000       0.97290000
H       -0.15340000      -0.49280000      -0.80200000
H        1.83580000      -3.12830000       2.80710000
H       -0.88790000      -3.07350000       0.10790000
H        0.63040000      -3.06670000      -0.79270000
H        0.42390000      -4.16490000       0.57200000
