21
Properties=species:S:1:pos:R:3 gdb_120578=T pbc="F F F"
C       -0.20070000       1.53320000       0.03040000
C       -0.13650000       0.01100000      -0.11490000
C        0.98340000      -0.45080000      -1.05890000
C        1.02390000      -1.95600000      -1.18740000
N        0.09940000      -2.58830000      -2.13430000
C        1.55490000      -2.68510000      -2.39290000
C        2.07910000      -1.99660000      -3.63850000
C        2.18090000      -3.96090000      -2.11050000
N        2.67370000      -4.98600000      -1.89680000
H        0.73730000       1.93440000       0.42990000
H       -0.38170000       2.01580000      -0.93630000
H       -1.00610000       1.83330000       0.70750000
H        0.00910000      -0.44720000       0.87220000
H       -1.09320000      -0.36840000      -0.49350000
H        0.83570000       0.00340000      -2.04350000
H        1.95360000      -0.09870000      -0.68430000
H        1.18260000      -2.47670000      -0.24330000
H       -0.26140000      -3.46670000      -1.77070000
H        1.51770000      -1.08160000      -3.82840000
H        3.13960000      -1.75070000      -3.53030000
H        1.96600000      -2.65120000      -4.50750000
