20
Properties=species:S:1:pos:R:3 gdb_41800=T pbc="F F F"
C        0.11880000       1.62930000       0.19140000
C        1.48870000       2.05080000      -0.40640000
C        2.27430000       0.73140000      -0.62180000
C        1.15520000      -0.26160000      -0.96890000
C        0.05260000       0.08080000       0.04740000
C        0.26770000      -0.64590000       1.37270000
O        1.38110000      -0.22800000       2.17180000
C        2.62530000       0.01690000       1.67240000
N        3.06320000       0.38730000       0.55040000
H        0.02500000       1.92690000       1.23940000
H       -0.70410000       2.10380000      -0.34910000
H        1.34700000       2.54130000      -1.37500000
H        2.04520000       2.74140000       0.23020000
H        2.98210000       0.83600000      -1.44920000
H        0.80840000      -0.06800000      -1.99090000
H        1.48220000      -1.30470000      -0.91950000
H       -0.92980000      -0.24740000      -0.30970000
H       -0.59390000      -0.49640000       2.03030000
H        0.36900000      -1.72430000       1.18830000
H        3.33370000      -0.11230000       2.49240000
