17
Properties=species:S:1:pos:R:3 gdb_78726=T pbc="F F F"
O        0.15840000       1.30630000       0.15440000
C        0.07700000      -0.08860000      -0.02440000
C       -1.35400000      -0.61740000      -0.12890000
C       -1.32210000      -0.52460000      -1.63720000
C        0.25700000      -0.57780000      -1.49290000
C        0.16760000      -2.11810000      -1.38590000
C       -1.30090000      -1.90330000      -0.98590000
C       -2.34120000      -2.87180000      -0.94580000
C       -3.20560000      -3.70930000      -0.91960000
H       -0.49470000       1.71530000      -0.42660000
H        0.74600000      -0.52370000       0.72490000
H       -2.18640000      -0.44450000       0.54130000
H       -2.01070000      -0.12070000      -2.36480000
H        0.98310000      -0.08740000      -2.13720000
H        0.23160000      -2.61110000      -2.35890000
H        0.83430000      -2.61610000      -0.67290000
H       -3.97070000      -4.44490000      -0.89470000
