16
Properties=species:S:1:pos:R:3 gdb_91683=T pbc="F F F"
O       -0.13850000       1.41920000       0.01990000
C       -0.01120000       0.01200000       0.03470000
C        0.49280000      -0.59610000       1.38950000
C       -0.79760000      -1.35070000       1.75000000
O       -1.13290000      -1.98350000       0.47480000
C       -1.41680000      -0.62560000       0.04400000
C       -1.91960000      -0.29940000       1.47970000
C       -3.26280000      -0.76550000       1.77030000
N       -4.33770000      -1.10850000       2.02100000
H        0.73830000       1.80810000      -0.05080000
H        0.56540000      -0.35110000      -0.82350000
H        1.32680000      -1.28940000       1.26700000
H        0.76630000       0.18340000       2.10530000
H       -0.82260000      -2.02100000       2.60700000
H       -2.04650000      -0.54140000      -0.83900000
H       -1.76790000       0.71930000       1.84060000
