17
Properties=species:S:1:pos:R:3 gdb_23140=T pbc="F F F"
O        0.04900000      -0.41740000       0.71200000
N       -0.12100000       0.77430000       0.85380000
C        0.90430000       1.63740000       0.28420000
C        0.76670000       3.07310000       0.74200000
C        0.26030000       3.95810000      -0.30570000
C       -0.14870000       4.67780000      -1.17750000
C        1.76900000       1.15780000      -0.61970000
C        2.82880000       1.94650000      -1.34070000
N        3.66680000       2.71410000      -0.40910000
H        4.27370000       3.33900000      -0.92970000
H        4.27040000       2.08440000       0.11030000
H        0.08370000       3.09120000       1.59920000
H        1.74720000       3.43350000       1.06800000
H       -0.52230000       5.32020000      -1.93570000
H        1.66510000       0.10050000      -0.85430000
H        3.39780000       1.26710000      -1.99350000
H        2.32560000       2.66830000      -1.99870000
