12
Properties=species:S:1:pos:R:3 gdb_5706=T pbc="F F F"
C        0.07110000       1.39280000      -0.12830000
O        1.47290000       1.77890000      -0.01360000
C        1.95580000       0.68460000       0.62710000
C        1.13160000      -0.37080000       0.62240000
O       -0.03590000      -0.03850000      -0.04790000
C        1.87380000      -1.46570000       1.14740000
C        3.10520000      -0.93300000       1.43250000
O        3.17150000       0.41720000       1.09890000
H       -0.47030000       1.84490000       0.71600000
H       -0.30880000       1.73610000      -1.09070000
H        1.57240000      -2.48660000       1.31570000
H        3.98570000      -1.32280000       1.91130000
