20
Properties=species:S:1:pos:R:3 gdb_89261=T pbc="F F F"
C       -0.18930000       1.54240000      -0.12080000
C        0.08910000       0.06320000       0.04810000
O        1.16160000      -0.45010000      -0.80100000
C        1.76720000      -1.15650000       0.30180000
C        1.95460000      -2.63060000       0.05530000
C        2.93160000      -0.41750000       1.02950000
N        2.65260000       1.03010000       0.99210000
C        1.95460000       0.18630000       1.98960000
C        0.76780000      -0.53330000       1.30840000
H        0.70420000       2.13280000       0.07530000
H       -0.53100000       1.73940000      -1.14250000
H       -0.98960000       1.84810000       0.56320000
H       -0.82810000      -0.50500000      -0.16970000
H        2.65920000      -2.78630000      -0.76970000
H        2.35630000      -3.12830000       0.94440000
H        1.00620000      -3.10420000      -0.21360000
H        3.94150000      -0.78210000       1.18200000
H        3.42070000       1.48870000       1.48210000
H        2.05700000       0.38900000       3.04870000
H        0.16420000      -1.14960000       1.97430000
