19
Properties=species:S:1:pos:R:3 gdb_83022=T pbc="F F F"
C        0.00550000       1.47750000      -0.00690000
C        0.02530000      -0.01800000      -0.03700000
C        0.08380000      -0.82770000      -1.10320000
C        0.02830000      -2.29500000      -0.72970000
C        0.00500000      -2.28210000       0.79630000
C        1.20230000      -1.67350000       1.49590000
O        2.43650000      -1.48150000       0.87830000
C       -0.01580000      -0.81650000       1.23500000
O       -0.82530000      -0.37280000       2.28390000
H        0.88250000       1.87970000       0.51680000
H       -0.01460000       1.90120000      -1.01390000
H       -0.87610000       1.83290000       0.53800000
H        0.16850000      -0.49150000      -2.13140000
H       -0.85820000      -2.78490000      -1.15100000
H        0.89910000      -2.84600000      -1.11010000
H       -0.57230000      -3.02250000       1.33720000
H        1.34040000      -1.98000000       2.52890000
H        2.27690000      -0.98390000       0.06520000
H       -0.27940000       0.13810000       2.89060000
