23
Properties=species:S:1:pos:R:3 gdb_85046=T pbc="F F F"
C       -0.85530000       1.23060000       0.03420000
C        0.09400000       0.03490000      -0.01110000
C        1.16650000       0.10660000      -1.11400000
C        2.30250000      -0.79430000      -0.62290000
O        3.30300000      -1.07340000      -1.23400000
C        1.95750000      -1.27620000       0.79310000
C        3.18240000      -1.57330000       1.65250000
C        0.90840000      -0.24990000       1.28890000
C        1.53670000       1.00330000       1.91290000
H       -0.31400000       2.17430000       0.15700000
H       -1.43260000       1.30250000      -0.89350000
H       -1.56820000       1.14230000       0.86160000
H       -0.50980000      -0.86420000      -0.19690000
H        0.82280000      -0.19900000      -2.10620000
H        1.56690000       1.12330000      -1.22220000
H        1.41540000      -2.22200000       0.62520000
H        3.76800000      -0.67030000       1.84600000
H        2.89860000      -2.00930000       2.61530000
H        3.83530000      -2.27720000       1.13010000
H        0.25290000      -0.70800000       2.03830000
H        2.21660000       1.51620000       1.22260000
H        0.76760000       1.72020000       2.21320000
H        2.11200000       0.74890000       2.80750000
