23
Properties=species:S:1:pos:R:3 gdb_101139=T pbc="F F F"
C        0.03370000       1.57110000      -0.03560000
C        0.06270000       0.03230000      -0.01680000
C        0.68700000      -0.51970000      -1.30720000
O       -0.10640000      -0.08410000      -2.40250000
C        0.76550000      -0.51590000       1.19770000
C        0.24090000      -1.34490000       2.10370000
C        1.19280000      -1.67070000       3.22840000
C        2.55090000      -1.15830000       2.68590000
C        2.18790000      -0.13520000       1.58190000
H        1.04780000       1.98610000      -0.05490000
H       -0.49130000       1.92550000      -0.92500000
H       -0.47260000       1.96230000       0.85190000
H       -0.97320000      -0.32950000      -0.00040000
H        1.72440000      -0.16100000      -1.40430000
H        0.71900000      -1.61860000      -1.25150000
H        0.30730000      -0.39020000      -3.21440000
H       -0.77770000      -1.71930000       2.07290000
H        0.89760000      -1.14970000       4.15120000
H        1.21660000      -2.73800000       3.47710000
H        3.19030000      -0.73450000       3.46450000
H        3.09850000      -1.99400000       2.23800000
H        2.88930000      -0.16540000       0.74020000
H        2.21530000       0.89650000       1.96040000
