17
Properties=species:S:1:pos:R:3 gdb_30153=T pbc="F F F"
O       -0.05560000       1.14580000       1.28820000
C        0.03630000       0.10510000       0.37250000
C       -0.58360000      -1.24230000       0.62140000
C       -1.15170000      -0.33380000      -0.45730000
N       -2.40910000       0.30600000      -0.20850000
C       -3.60150000      -0.29530000       0.15110000
C       -4.52850000       0.71050000       0.18260000
N       -3.95110000       1.91520000      -0.15060000
C       -2.68990000       1.63860000      -0.38380000
H       -0.97970000       1.26370000       1.53810000
H        0.99610000       0.13700000      -0.13160000
H       -0.05970000      -2.13920000       0.31100000
H       -1.17480000      -1.34920000       1.52480000
H       -0.98210000      -0.60530000      -1.49530000
H       -3.65890000      -1.35400000       0.34050000
H       -5.57670000       0.63940000       0.43030000
H       -1.92410000       2.34020000      -0.67960000
