18
Properties=species:S:1:pos:R:3 gdb_47793=T pbc="F F F"
N       -0.03880000       1.26370000       0.56130000
C       -0.00840000       0.10320000       0.05370000
O        1.18040000      -0.57790000      -0.11530000
C        1.53890000      -0.97930000      -1.44040000
C        0.82590000      -2.22950000      -1.93760000
O       -0.51360000      -2.00360000      -2.32140000
C       -1.43970000      -1.67390000      -1.33540000
C       -1.39150000      -2.09930000       0.09480000
C       -1.26850000      -0.60990000      -0.26110000
H        0.91630000       1.58470000       0.73270000
H        1.37110000      -0.15340000      -2.14360000
H        2.61350000      -1.18090000      -1.39290000
H        1.32940000      -2.57700000      -2.84610000
H        0.90300000      -3.02740000      -1.18550000
H       -2.42000000      -1.66670000      -1.80020000
H       -2.30270000      -2.44340000       0.57050000
H       -0.48610000      -2.55370000       0.47680000
H       -2.13190000       0.01830000      -0.07880000
