19
Properties=species:S:1:pos:R:3 gdb_35695=T pbc="F F F"
N       -0.41880000      -0.78520000      -0.91050000
C       -0.25240000       0.22980000      -0.38260000
C       -0.01710000       1.52830000       0.24800000
N        0.21940000       1.50100000       1.70590000
C        1.27640000       2.53160000       1.57420000
C        1.38330000       2.19190000       0.06570000
C        2.61760000       1.38510000      -0.40730000
C        3.14280000       2.67330000      -1.10020000
C        1.71230000       3.27080000      -0.98610000
H       -0.81400000       2.21620000      -0.07420000
H       -0.58140000       1.74740000       2.27710000
H        0.92970000       3.56200000       1.74120000
H        2.15980000       2.34830000       2.19470000
H        3.23590000       0.92850000       0.36890000
H        2.33920000       0.61310000      -1.13020000
H        3.86280000       3.21290000      -0.47950000
H        3.56100000       2.56590000      -2.10270000
H        1.13460000       3.12570000      -1.90460000
H        1.61290000       4.31430000      -0.67450000
