17
Properties=species:S:1:pos:R:3 gdb_127304=T pbc="F F F"
C        0.11050000       1.38090000       0.09890000
N        0.01790000      -0.06070000       0.00780000
C       -0.35760000      -0.80660000      -1.06080000
C       -0.28830000      -2.12630000      -0.66780000
C        0.14460000      -2.07540000       0.67550000
N        0.33280000      -0.81470000       1.07390000
C        0.37130000      -3.21800000       1.58660000
C        1.03020000      -3.06910000       2.89130000
O       -0.38030000      -3.25460000       2.81400000
H        1.13690000       1.68100000       0.32620000
H       -0.18990000       1.81550000      -0.85570000
H       -0.54810000       1.75120000       0.88870000
H       -0.63940000      -0.34730000      -1.99510000
H       -0.52140000      -2.99820000      -1.25740000
H        0.43110000      -4.18420000       1.08630000
H        1.59500000      -3.90420000       3.30530000
H        1.35270000      -2.07630000       3.19740000
