12
Properties=species:S:1:pos:R:3 gdb_131372=T pbc="F F F"
O        0.10010000       1.32650000       0.07930000
C        0.07310000      -0.01330000       0.07960000
N        0.06790000      -0.71750000      -1.03540000
N        0.08030000      -2.05850000      -0.65650000
C        0.02350000      -2.14260000       0.68790000
C        0.04780000      -0.86390000       1.22420000
N        0.04350000      -0.95510000       2.58850000
N        0.01510000      -2.20190000       2.91380000
N        0.00910000      -2.97040000       1.74900000
H        0.11470000       1.61420000      -0.84330000
H       -0.11760000      -2.74950000      -1.35710000
H       -0.02810000      -3.97200000       1.82620000
