16
Properties=species:S:1:pos:R:3 gdb_35084=T pbc="F F F"
N       -0.01930000      -1.17780000      -0.11790000
C       -0.00490000      -0.02470000      -0.04400000
C        0.00750000       1.43950000       0.03640000
C       -0.68030000       1.93160000       1.30900000
C        0.01440000       2.70080000       2.14370000
C        1.44710000       3.00060000       1.75390000
C        1.48000000       3.51220000       0.29180000
C        1.45990000       1.99480000       0.00930000
O        2.06620000       1.75420000       1.29900000
H       -0.53120000       1.81430000      -0.84550000
H       -1.70560000       1.62630000       1.48590000
H       -0.41060000       3.10930000       3.05380000
H        2.03550000       3.49820000       2.52530000
H        0.65640000       4.13640000      -0.05840000
H        2.44420000       3.94590000       0.02380000
H        2.04240000       1.58400000      -0.81790000
