14
Properties=species:S:1:pos:R:3 gdb_130710=T pbc="F F F"
O       -0.03120000      -0.07270000       0.04570000
C       -0.00490000       1.13780000       0.04670000
N       -1.04430000       2.05660000       0.07470000
N       -0.65720000       3.38940000       0.06630000
C        0.63300000       3.31170000       0.03310000
C        1.81620000       4.23870000       0.00400000
C        2.96320000       3.23330000      -0.02650000
C        2.49250000       1.98000000      -0.01620000
N        1.08970000       2.01070000       0.01970000
H       -2.02020000       1.81890000       0.09920000
H        1.80760000       4.89390000      -0.87510000
H        1.85250000       4.89170000       0.88390000
H        4.00530000       3.51280000      -0.05280000
H        3.00850000       1.03250000      -0.03060000
