17
Properties=species:S:1:pos:R:3 gdb_17548=T pbc="F F F"
C       -0.67420000       1.25030000       0.01500000
O        0.75870000       1.19800000       0.00070000
C        0.03630000      -0.03070000       0.00140000
C        0.14520000      -0.92950000       1.23860000
C       -0.30420000      -2.28660000       0.73650000
N       -1.59060000      -2.23150000       0.00580000
C       -0.31880000      -2.27890000      -0.75050000
C        0.12080000      -0.91650000      -1.24710000
H       -1.11910000       1.61260000       0.94120000
H       -1.13720000       1.62220000      -0.89840000
H        1.19190000      -0.97770000       1.56300000
H       -0.45160000      -0.55730000       2.07610000
H       -0.05830000      -3.18100000       1.29930000
H       -2.01200000      -3.15720000       0.00510000
H       -0.08410000      -3.16730000      -1.32730000
H       -0.49220000      -0.53560000      -2.06880000
H        1.16090000      -0.96120000      -1.59240000
