15
Properties=species:S:1:pos:R:3 gdb_13057=T pbc="F F F"
O        0.19080000      -0.08760000      -0.95100000
C       -0.03600000       0.90000000      -0.28780000
N        0.92040000       1.68820000       0.28520000
C        2.31070000       1.34640000       0.26210000
C        3.37350000       2.19320000      -0.52190000
C        4.36310000       2.03990000       0.67280000
C        3.14640000       1.63870000       1.52210000
O        2.85760000       1.74550000       2.67830000
H       -1.05700000       1.27590000      -0.08430000
H        0.62240000       2.42800000       0.90310000
H        2.39010000       0.29370000      -0.02790000
H        3.68540000       1.78830000      -1.48430000
H        3.04580000       3.22730000      -0.64870000
H        5.06170000       1.20760000       0.54440000
H        4.91470000       2.91840000       1.01200000
