21
Properties=species:S:1:pos:R:3 gdb_118979=T pbc="F F F"
C        0.15260000       1.47590000      -0.06680000
C       -0.05640000      -0.04470000       0.01660000
C       -1.54760000      -0.43980000      -0.00940000
C       -2.28410000      -0.05810000      -1.28860000
O       -3.59820000      -0.59520000      -1.19150000
O        0.61280000      -0.65840000      -1.10750000
C        1.61390000      -1.57140000      -0.67060000
C        1.57970000      -1.50150000       0.82970000
C        0.64370000      -0.64440000       1.21520000
H        1.21710000       1.71170000       0.01180000
H       -0.21300000       1.86700000      -1.01970000
H       -0.37730000       1.98920000       0.74270000
H       -1.62060000      -1.52600000       0.10980000
H       -2.06020000       0.01150000       0.84890000
H       -2.31890000       1.03600000      -1.40450000
H       -1.74200000      -0.46850000      -2.15170000
H       -4.06100000      -0.39620000      -2.01040000
H        1.39550000      -2.58310000      -1.04830000
H        2.59290000      -1.28000000      -1.08320000
H        2.23720000      -2.08060000       1.46580000
H        0.37840000      -0.38160000       2.23160000
