18
Properties=species:S:1:pos:R:3 gdb_105434=T pbc="F F F"
C       -0.01370000       1.41310000      -0.09800000
O       -0.02550000       0.00010000       0.02120000
C        0.64060000      -0.55600000       1.14330000
C       -0.13610000      -0.30790000       2.47970000
C       -0.91230000      -1.58490000       2.67410000
C       -0.51860000      -2.54780000       1.84570000
C        0.59320000      -2.10060000       0.93430000
C        2.03150000      -0.05920000       1.21760000
N        3.11520000       0.33920000       1.27350000
H        1.00890000       1.80520000      -0.16740000
H       -0.54920000       1.64150000      -1.02140000
H       -0.52630000       1.91030000       0.73630000
H        0.55220000      -0.12200000       3.31330000
H       -0.77260000       0.57830000       2.39640000
H       -1.68420000      -1.67840000       3.42900000
H       -0.91450000      -3.55610000       1.81710000
H        0.40960000      -2.30080000      -0.12530000
H        1.54790000      -2.57150000       1.19620000
