21
Properties=species:S:1:pos:R:3 gdb_72901=T pbc="F F F"
C       -0.25400000       1.47920000       0.11870000
C        0.10010000       0.00820000       0.00980000
C       -1.08400000      -0.98830000       0.21870000
C       -0.40920000      -1.51020000       1.52060000
C        0.86110000      -0.66810000       1.20140000
C        2.05600000      -1.34400000       0.55030000
C        1.81700000      -2.40730000      -0.51170000
C        2.00550000      -0.96830000      -0.90720000
O        0.87050000      -0.19180000      -1.18020000
H        0.65250000       2.09080000       0.16440000
H       -0.83700000       1.79450000      -0.75290000
H       -0.85110000       1.67180000       1.01590000
H       -2.06650000      -0.52530000       0.34250000
H       -1.14920000      -1.72340000      -0.58600000
H       -0.91850000      -1.18250000       2.43000000
H       -0.25320000      -2.58910000       1.58660000
H        1.19160000       0.00160000       1.99920000
H        2.99320000      -1.36830000       1.09360000
H        2.63620000      -3.09170000      -0.70760000
H        0.83320000      -2.85060000      -0.61510000
H        2.87100000      -0.65780000      -1.48250000
