18
Properties=species:S:1:pos:R:3 gdb_36495=T pbc="F F F"
N       -0.00040000      -1.17410000      -0.21310000
C       -0.00100000      -0.02020000      -0.15700000
C       -0.00980000       1.43820000      -0.06320000
C        1.40050000       2.04160000       0.00430000
O        2.06620000       1.74130000      -1.21650000
C        3.08860000       2.71520000      -1.42510000
C        2.55990000       3.99490000      -0.80050000
C        1.13080000       4.33900000      -1.12610000
C        1.45000000       3.55660000       0.12550000
H       -0.53920000       1.85060000      -0.92760000
H       -0.56850000       1.72610000       0.83410000
H        1.93580000       1.59390000       0.85780000
H        4.02790000       2.41230000      -0.93690000
H        3.26140000       2.77340000      -2.50420000
H        3.25950000       4.77400000      -0.52330000
H        0.82200000       5.36990000      -0.99680000
H        0.65820000       3.82460000      -1.95710000
H        1.30430000       4.00640000       1.10030000
