22
Properties=species:S:1:pos:R:3 gdb_70329=T pbc="F F F"
C       -0.07200000       1.51870000       0.05540000
C        0.01050000       0.00800000       0.00250000
C       -0.58460000      -0.78270000       1.14800000
C        0.90920000      -0.77960000       0.93880000
C        1.55890000      -1.89640000       0.12390000
N        1.10860000      -1.78710000      -1.28260000
C       -0.31200000      -2.08810000      -1.51650000
C        0.13080000      -0.67360000      -1.36750000
C        0.21510000       0.20430000      -2.59690000
H        0.76580000       1.99650000      -0.46220000
H       -0.99880000       1.88990000      -0.39690000
H       -0.05550000       1.86240000       1.09400000
H       -0.95960000      -0.20170000       1.98570000
H       -1.15660000      -1.68410000       0.96600000
H        1.52420000      -0.26870000       1.67360000
H        2.64690000      -1.77020000       0.13420000
H        1.34720000      -2.89960000       0.51260000
H       -0.52970000      -2.47680000      -2.50960000
H       -0.88710000      -2.56720000      -0.73090000
H       -0.71450000       0.76300000      -2.75160000
H        1.03580000       0.92510000      -2.52620000
H        0.39260000      -0.41300000      -3.48070000
