14
Properties=species:S:1:pos:R:3 gdb_23255=T pbc="F F F"
O       -0.06510000       1.33200000      -0.19710000
N        0.03360000      -0.03500000      -0.05590000
C       -1.09100000      -0.62800000       0.07420000
C       -1.14810000      -2.13820000       0.21810000
C       -2.57710000      -2.39910000       0.66150000
O       -2.92460000      -1.67260000       1.83530000
C       -3.38690000      -1.16980000       0.56460000
C       -2.49220000      -0.05240000       0.08190000
O       -2.84790000       1.04430000      -0.26610000
H        0.85920000       1.60030000      -0.26240000
H       -0.95080000      -2.62880000      -0.74280000
H       -0.42090000      -2.51590000       0.94180000
H       -3.02320000      -3.38480000       0.56490000
H       -4.46020000      -1.13330000       0.41240000
