23
Properties=species:S:1:pos:R:3 gdb_115819=T pbc="F F F"
C       -0.07100000       1.56990000       0.16850000
C       -0.04250000       0.04070000       0.10210000
C       -1.43090000      -0.58290000       0.01290000
C       -1.45800000      -2.11750000      -0.04210000
C       -2.82010000      -2.43830000       0.58960000
C       -2.93010000      -1.34490000       1.63720000
C       -4.15560000      -1.06540000       2.44470000
C       -2.90440000      -1.61570000       3.11690000
O       -2.19390000      -0.22780000       1.17670000
H        0.93980000       1.98140000       0.24870000
H       -0.53470000       1.99590000      -0.72840000
H       -0.64820000       1.90430000       1.03440000
H        0.53700000      -0.28790000      -0.77060000
H        0.45970000      -0.36480000       0.98930000
H       -1.94940000      -0.17520000      -0.87190000
H       -1.34390000      -2.50190000      -1.05860000
H       -0.64620000      -2.52670000       0.57040000
H       -3.61980000      -2.33900000      -0.15420000
H       -2.88030000      -3.44190000       1.01690000
H       -4.39650000      -0.02360000       2.62440000
H       -5.01540000      -1.71790000       2.33010000
H       -2.91080000      -2.64390000       3.46460000
H       -2.33150000      -0.92800000       3.72910000
