16
Properties=species:S:1:pos:R:3 gdb_75341=T pbc="F F F"
N        0.04450000       1.29530000       0.60730000
C       -0.07520000      -0.00150000       0.19390000
N       -1.18810000      -0.63190000       0.17370000
C       -1.16320000      -2.01590000      -0.30860000
C        0.12480000      -2.75880000       0.02690000
C        1.19170000      -3.02450000      -0.99940000
N        1.33740000      -1.95570000      -0.02220000
C        1.23280000      -0.60590000      -0.29550000
O        2.07860000       0.06030000      -0.85280000
H        0.85290000       1.78090000       0.24760000
H       -0.81240000       1.82410000       0.66590000
H       -2.01150000      -2.54450000       0.13600000
H       -1.34060000      -2.01670000      -1.39340000
H        0.08330000      -3.42590000       0.88550000
H        1.86910000      -3.86370000      -0.87510000
H        0.99640000      -2.73480000      -2.02850000
