21
Properties=species:S:1:pos:R:3 gdb_80616=T pbc="F F F"
C       -0.11850000       1.52300000      -0.09060000
C        0.04070000       0.00800000      -0.00310000
C        0.99170000      -0.56640000      -1.07690000
C        1.20290000      -2.03660000      -0.66310000
C        1.93770000      -1.28700000       0.46140000
O        2.31050000      -0.25560000      -0.50560000
C        0.79630000      -0.57720000       1.24990000
C        1.33870000       0.43250000       2.25370000
O       -0.08270000      -1.50220000       1.88820000
H        0.85430000       2.02080000      -0.13050000
H       -0.67080000       1.79240000      -0.99760000
H       -0.67570000       1.92400000       0.76140000
H       -0.94180000      -0.47130000      -0.05190000
H        0.86820000      -0.24130000      -2.11080000
H        0.33810000      -2.64910000      -0.40580000
H        1.89570000      -2.55400000      -1.32730000
H        2.77730000      -1.69840000       1.02590000
H        2.05460000       1.10870000       1.78160000
H        0.53340000       1.02150000       2.70100000
H        1.86180000      -0.09180000       3.06440000
H        0.35130000      -1.82260000       2.68650000
