20
Properties=species:S:1:pos:R:3 gdb_34026=T pbc="F F F"
C        0.00690000      -1.20080000       0.04400000
C        0.01500000       0.00180000       0.05130000
C        0.00620000       1.44380000       0.01150000
C       -1.21570000       2.06950000      -0.67990000
C       -0.87000000       3.21810000      -1.64030000
C        0.14080000       4.19530000      -1.03270000
C        1.47330000       3.48420000      -0.75480000
C        1.31940000       2.18010000       0.00250000
N        0.54240000       2.09650000       1.24070000
H        0.00640000      -2.26240000       0.05520000
H       -1.74920000       1.28470000      -1.22210000
H       -1.90760000       2.42440000       0.09560000
H       -0.44460000       2.80200000      -2.56300000
H       -1.78940000       3.73950000      -1.92720000
H        0.31560000       5.03850000      -1.70870000
H       -0.26680000       4.62880000      -0.10900000
H        1.96550000       3.26250000      -1.71090000
H        2.15630000       4.14210000      -0.20260000
H        2.21900000       1.56870000       0.03350000
H        0.03100000       2.96420000       1.39420000
