22
Properties=species:S:1:pos:R:3 gdb_8358=T pbc="F F F"
C       -0.02530000       1.56210000       0.01060000
C        0.00090000       0.03150000       0.00260000
C       -1.40100000      -0.59280000       0.01180000
C       -1.39570000      -2.10190000       0.00420000
C       -0.77090000      -3.06420000       1.06910000
C       -1.40470000      -3.98980000      -0.00520000
C       -2.63870000      -3.04640000       0.00900000
C       -0.78740000      -3.05330000      -1.07980000
H        0.98630000       1.98010000       0.00370000
H       -0.55350000       1.95360000      -0.86610000
H       -0.53780000       1.94460000       0.90050000
H        0.54740000      -0.32200000      -0.88090000
H        0.56300000      -0.33090000       0.87270000
H       -1.95060000      -0.24210000       0.89680000
H       -1.96610000      -0.23320000      -0.85970000
H        0.32040000      -3.07550000       1.14490000
H       -1.23890000      -3.06610000       2.05850000
H       -1.41040000      -5.08020000      -0.01070000
H       -3.24880000      -3.04580000       0.91760000
H       -3.26270000      -3.03670000      -0.89010000
H       -1.27040000      -3.04540000      -2.06190000
H        0.30270000      -3.06380000      -1.17240000
