16
Properties=species:S:1:pos:R:3 gdb_25593=T pbc="F F F"
N       -0.03500000       1.28600000       0.00830000
C       -0.02420000       0.02360000       0.00280000
O       -1.18320000      -0.65870000       0.00860000
C       -1.07710000      -2.08340000       0.00050000
C       -2.45880000      -2.64680000       0.01020000
C       -3.65180000      -1.97500000       0.02140000
N       -4.61440000      -2.96150000       0.02650000
C       -3.96870000      -4.16040000       0.01800000
N       -2.66460000      -4.00780000       0.00810000
H        0.91960000       1.63950000       0.00270000
H        0.86620000      -0.62090000      -0.00690000
H       -0.53090000      -2.41960000      -0.89210000
H       -0.51510000      -2.42860000       0.87980000
H       -3.89030000      -0.92610000       0.02630000
H       -5.61000000      -2.81730000       0.03510000
H       -4.49700000      -5.10200000       0.01960000
