16
Properties=species:S:1:pos:R:3 gdb_54182=T pbc="F F F"
C       -0.18950000       1.65420000       0.41550000
C       -0.07620000       0.19490000       0.06200000
O        1.17760000      -0.27380000      -0.43190000
C        0.76860000      -0.77080000       0.83880000
C        1.54440000      -0.34270000       2.04670000
O        2.31530000       0.58100000       2.08050000
C       -1.30710000      -0.40430000      -0.61340000
N       -1.02110000      -1.36640000      -1.52960000
O       -2.42750000      -0.04270000      -0.31350000
H        0.68250000       1.98880000       0.97650000
H       -0.26450000       2.24500000      -0.50290000
H       -1.10310000       1.81700000       0.99060000
H        0.45190000      -1.81450000       0.84850000
H        1.33410000      -0.96410000       2.94530000
H       -0.07100000      -1.48890000      -1.83950000
H       -1.77940000      -1.75290000      -2.06700000
