19
Properties=species:S:1:pos:R:3 gdb_106855=T pbc="F F F"
C       -0.30640000       1.25860000      -0.04050000
O        0.23380000      -0.04550000       0.11050000
C        0.79830000      -0.54680000      -1.03520000
C       -0.02870000      -1.06870000      -2.17210000
C        0.90080000      -2.03040000      -1.43500000
C        2.34220000      -1.78820000      -1.92610000
C        2.24480000      -0.29400000      -1.47530000
C        0.43320000      -3.20180000      -0.78080000
C        0.06500000      -4.20300000      -0.22260000
H        0.47010000       1.99350000      -0.29460000
H       -1.08140000       1.28310000      -0.81870000
H       -0.75020000       1.53000000       0.91950000
H       -1.07780000      -1.20840000      -1.93470000
H        0.18240000      -0.80510000      -3.20670000
H        3.08100000      -2.35330000      -1.35650000
H        2.50070000      -1.96510000      -2.99400000
H        2.39690000       0.47160000      -2.24250000
H        2.89460000      -0.08330000      -0.62340000
H       -0.26700000      -5.08160000       0.27190000
