14
Properties=species:S:1:pos:R:3 gdb_4806=T pbc="F F F"
N        0.19390000       1.28850000       0.26240000
C        0.02400000      -0.07610000       0.07560000
C       -1.00710000      -0.78880000      -0.45010000
O       -0.62000000      -2.12010000      -0.47380000
C        0.61500000      -2.12080000       0.04040000
C        1.37890000      -3.40130000       0.16290000
O        2.61110000      -3.19180000       0.80550000
N        1.05850000      -0.95160000       0.38600000
H        0.87390000       1.48810000       0.98340000
H       -0.66410000       1.79830000       0.41730000
H       -1.98680000      -0.56240000      -0.82850000
H        0.78050000      -4.13070000       0.72810000
H        1.52340000      -3.82800000      -0.84330000
H        2.72420000      -2.23460000       0.88170000
