16
Properties=species:S:1:pos:R:3 gdb_13204=T pbc="F F F"
O       -0.30720000       1.34810000      -0.75900000
C       -0.85930000       0.06660000      -0.71550000
C       -0.73830000      -0.53080000       0.67400000
O       -0.21510000       0.10240000       1.56740000
C       -1.29350000      -1.91870000       0.91880000
C       -2.65770000      -1.98830000       1.65430000
C       -3.13380000      -2.72040000       0.38300000
O       -1.84670000      -2.54120000      -0.25590000
H        0.01840000       1.51600000       0.14000000
H       -1.92390000       0.07060000      -1.00020000
H       -0.37020000      -0.61920000      -1.42590000
H       -0.50320000      -2.52780000       1.37650000
H       -2.65870000      -2.56840000       2.57650000
H       -3.12360000      -1.01930000       1.83810000
H       -3.37210000      -3.78180000       0.51480000
H       -3.93880000      -2.23990000      -0.18330000
