18
Properties=species:S:1:pos:R:3 gdb_56927=T pbc="F F F"
C       -0.18490000       1.44630000       0.10960000
C        0.10970000      -0.03140000      -0.19030000
C        0.94970000      -0.17370000      -1.38030000
C        1.62890000      -0.26590000      -2.36680000
N        0.79710000      -0.61890000       0.97240000
C       -0.04420000      -1.07490000       2.06560000
C        0.67410000      -2.07080000       1.20160000
C       -0.07940000      -2.92310000       0.32230000
C       -0.68190000      -3.65900000      -0.41420000
H        0.74520000       1.98050000       0.31690000
H       -0.67870000       1.91420000      -0.74540000
H       -0.84060000       1.53020000       0.98130000
H       -0.84440000      -0.54890000      -0.38540000
H        2.22950000      -0.36090000      -3.23730000
H        0.31840000      -0.86580000       3.06830000
H       -1.12500000      -1.02560000       1.94310000
H        1.58950000      -2.51620000       1.58370000
H       -1.21300000      -4.30640000      -1.06730000
