16
Properties=species:S:1:pos:R:3 gdb_126033=T pbc="F F F"
C       -0.01050000       1.58410000      -0.03300000
C        0.01640000       0.05690000       0.06330000
C        0.74420000      -0.63390000      -1.14290000
O        1.52570000      -1.75990000      -0.64300000
C        1.64380000      -1.55200000       0.68880000
C        2.31030000      -2.02410000       1.76650000
O        1.90000000      -1.30890000       2.85580000
N        0.95250000      -0.35110000       2.47600000
C        0.82360000      -0.52180000       1.19030000
H        1.00470000       1.98960000      -0.08180000
H       -0.55420000       1.90900000      -0.92580000
H       -0.50490000       2.01520000       0.84120000
H       -1.01270000      -0.31750000       0.13100000
H        0.05880000      -1.02370000      -1.89730000
H        1.43700000       0.07070000      -1.61900000
H        3.04450000      -2.78880000       1.95200000
