17
Properties=species:S:1:pos:R:3 gdb_61035=T pbc="F F F"
C       -0.09150000       1.46190000      -0.23150000
C       -0.06010000      -0.05450000      -0.03730000
C        0.57370000      -0.77090000      -1.22800000
O        0.93550000      -0.20950000      -2.23000000
C        0.66000000      -0.46940000       1.25630000
C       -0.01370000      -0.17500000       2.61260000
O       -0.05320000      -1.60700000       2.91590000
C        0.50860000      -1.92960000       1.70880000
O        0.72780000      -3.01380000       1.27190000
H        0.92330000       1.86650000      -0.28990000
H       -0.59780000       1.71780000      -1.16450000
H       -0.61360000       1.95410000       0.59430000
H       -1.08940000      -0.44460000       0.02170000
H        0.67890000      -1.86870000      -1.10590000
H        1.71060000      -0.16410000       1.22360000
H        0.58300000       0.36130000       3.35200000
H       -1.02570000       0.23320000       2.56290000
