18
Properties=species:S:1:pos:R:3 gdb_58727=T pbc="F F F"
C        0.06680000       1.51310000      -0.01760000
C       -0.02330000      -0.00920000       0.12750000
O        0.69460000      -0.46220000       1.27650000
C       -1.43820000      -0.49540000       0.11870000
C       -1.98050000      -1.92380000      -0.04280000
C       -3.22140000      -1.52710000       0.79370000
C       -2.70760000      -0.14240000       0.95390000
N       -3.61600000      -0.46860000      -0.20330000
C       -2.37550000      -0.84110000      -1.01440000
H        1.11280000       1.82980000      -0.00240000
H       -0.39280000       1.84790000      -0.95240000
H       -0.45440000       2.01270000       0.80800000
H        0.49510000      -0.48020000      -0.71780000
H        0.28290000      -0.06690000       2.05280000
H       -1.42750000      -2.84210000      -0.17770000
H       -3.95390000      -2.09340000       1.35610000
H       -2.94730000       0.63870000       1.66690000
H       -2.28800000      -0.74730000      -2.09000000
