9
Properties=species:S:1:pos:R:3 gdb_23822=T pbc="F F F"
F       -0.32580000      -0.22100000       0.09770000
C       -0.21630000       1.09830000       0.18920000
N       -1.47390000       1.66260000       0.02770000
C       -1.74170000       2.83800000       0.28800000
N       -2.17500000       3.90720000       0.63230000
N        0.92920000       4.68680000      -0.81000000
N        2.02210000       4.66120000      -0.91650000
O        0.83150000       1.63780000       0.35460000
H       -2.06130000       4.77510000       0.13070000
