16
Properties=species:S:1:pos:R:3 gdb_52753=T pbc="F F F"
C       -0.00590000       1.49530000       0.01300000
C       -0.00940000       0.04130000      -0.01440000
C       -0.02470000      -1.16040000      -0.04110000
C       -0.00970000      -2.61920000      -0.06570000
O       -1.36010000      -3.08730000       0.13200000
C       -1.48100000      -4.37690000       0.52160000
N       -2.62760000      -4.88020000       0.66290000
C        0.55630000      -3.14550000      -1.31440000
C        1.02110000      -3.60490000      -2.32150000
H        0.59700000       1.87610000       0.84410000
H        0.40200000       1.90670000      -0.91630000
H       -1.02320000       1.88310000       0.13220000
H        0.60690000      -2.98090000       0.77250000
H       -0.51940000      -4.87960000       0.69190000
H       -2.54810000      -5.84510000       0.97740000
H        1.42770000      -4.00100000      -3.21960000
