16
Properties=species:S:1:pos:R:3 gdb_24356=T pbc="F F F"
C       -0.02630000       1.45690000       0.03950000
C        1.41450000       1.98190000       0.01890000
O        2.14520000       1.54860000       1.17130000
C        1.99050000       0.21630000       1.39490000
C        2.76170000      -0.61860000       2.14080000
O        2.23730000      -1.87760000       2.09210000
C        1.11660000      -1.83430000       1.31880000
C        0.91490000      -0.56920000       0.85560000
N       -0.10390000      -0.00760000       0.06160000
H       -0.52530000       1.84990000       0.93420000
H       -0.56960000       1.83110000      -0.83240000
H        1.92890000       1.64030000      -0.89160000
H        1.43520000       3.07410000       0.04550000
H        3.65120000      -0.48470000       2.73030000
H        0.59480000      -2.76610000       1.18250000
H       -0.14150000      -0.40410000      -0.86860000
