12
Properties=species:S:1:pos:R:3 gdb_131582=T pbc="F F F"
O        0.01490000       1.42690000       0.00920000
C       -0.00790000       0.01100000       0.00240000
C       -1.39070000      -0.45030000       0.01270000
C       -2.52360000      -0.85700000       0.02090000
C       -3.84080000      -1.35520000       0.03050000
N       -4.93150000      -0.62840000       0.04130000
O       -5.93670000      -1.52600000       0.04730000
N       -5.39840000      -2.81680000       0.03960000
N       -4.15020000      -2.71480000       0.02960000
H        0.93710000       1.70310000       0.00130000
H        0.48960000      -0.40450000      -0.88940000
H        0.50570000      -0.41330000       0.88090000
