14
Properties=species:S:1:pos:R:3 gdb_5050=T pbc="F F F"
O        0.00340000      -0.09930000       0.00240000
C       -0.01330000       1.12870000       0.00930000
C       -1.30510000       1.83090000       0.03040000
C       -1.60230000       3.15410000       0.04090000
C       -0.73590000       4.29300000       0.03480000
C        0.62320000       4.31160000       0.01690000
C        1.52020000       3.19670000      -0.00010000
C        1.25900000       1.86590000      -0.00330000
H       -2.13510000       1.12880000       0.03810000
H       -2.66250000       3.39800000       0.05630000
H       -1.23810000       5.25660000       0.04600000
H        1.09900000       5.28850000       0.01530000
H        2.57340000       3.46940000      -0.01250000
H        2.10770000       1.18670000      -0.01760000
