15
Properties=species:S:1:pos:R:3 gdb_25967=T pbc="F F F"
C       -0.24040000       1.52560000       0.01380000
C        0.16320000       0.05900000       0.00130000
O        1.30390000      -0.32710000      -0.01700000
N       -0.93860000      -0.79810000       0.01210000
C       -0.92790000      -2.17690000       0.00300000
N        0.05080000      -3.02040000      -0.00550000
C       -0.58930000      -4.25910000      -0.01100000
C       -1.92680000      -4.08530000      -0.00500000
O       -2.16910000      -2.72710000       0.00400000
H        0.66510000       2.13070000       0.00880000
H       -0.84560000       1.77400000      -0.86470000
H       -0.82950000       1.76400000       0.90570000
H       -1.86010000      -0.38950000       0.02390000
H       -0.02630000      -5.17870000      -0.01870000
H       -2.79200000      -4.72370000      -0.00550000
