19
Properties=species:S:1:pos:R:3 gdb_83163=T pbc="F F F"
C       -0.18080000       1.57190000       0.11700000
C       -0.01350000       0.07490000      -0.02060000
C        0.66840000      -0.60200000      -1.19740000
C        1.37610000       0.13610000      -2.31760000
N        2.40520000       1.04160000      -1.82970000
C        3.08720000       0.95070000      -0.63600000
O        4.08060000       1.61940000      -0.40290000
N        2.55110000       0.08340000       0.29000000
C        1.32220000      -0.63540000       0.15330000
H        0.68210000       2.12570000      -0.25540000
H       -1.06000000       1.91360000      -0.44050000
H       -0.33100000       1.84670000       1.16670000
H       -0.85830000      -0.49200000       0.36530000
H        0.21500000      -1.52760000      -1.53770000
H        1.81160000      -0.61970000      -2.98940000
H        0.65740000       0.71150000      -2.91640000
H        2.90560000       1.59120000      -2.51040000
H        2.93960000       0.20880000       1.21150000
H        1.32770000      -1.57380000       0.69970000
