16
Properties=species:S:1:pos:R:3 gdb_80607=T pbc="F F F"
O        0.00750000       1.41860000      -0.15430000
C        0.05660000       0.01030000      -0.03780000
C       -1.34570000      -0.61250000      -0.15070000
N       -1.60690000      -0.26350000      -1.60680000
C       -0.53890000      -1.30360000      -1.91600000
C        0.72280000      -0.63890000      -1.32490000
O        1.32080000       0.30770000      -2.16030000
C       -1.09380000      -2.04200000      -0.67920000
O       -1.44230000      -3.14730000      -0.39370000
H       -0.69360000       1.59250000      -0.80310000
H        0.57690000      -0.22360000       0.89120000
H       -2.09440000      -0.34940000       0.59430000
H       -2.51870000      -0.62470000      -1.88390000
H       -0.49040000      -1.72010000      -2.91930000
H        1.45580000      -1.40830000      -1.05170000
H        1.19620000       1.16300000      -1.72210000
