22
Properties=species:S:1:pos:R:3 gdb_116556=T pbc="F F F"
C       -0.57480000       1.31520000       0.03120000
C        0.13840000      -0.02380000       0.22470000
N        0.72610000      -0.47080000      -1.03590000
C        1.92640000      -0.82310000      -1.06100000
C        2.86810000      -1.31580000      -2.13390000
C        3.91000000      -1.36660000      -0.98410000
C        4.37550000      -2.75160000      -0.56950000
C        5.03870000      -0.35350000      -1.06730000
O        2.86790000      -0.88460000      -0.04700000
H        0.13690000       2.09800000      -0.24940000
H       -1.32200000       1.23970000      -0.76410000
H       -1.07600000       1.62380000       0.95430000
H        0.88100000       0.05450000       1.02980000
H       -0.59520000      -0.77920000       0.53560000
H        2.60060000      -2.27960000      -2.57180000
H        3.07350000      -0.59900000      -2.93130000
H        5.07780000      -3.15470000      -1.30650000
H        4.88210000      -2.71230000       0.39980000
H        3.52840000      -3.43790000      -0.48660000
H        4.65520000       0.63540000      -1.33310000
H        5.55570000      -0.27480000      -0.10600000
H        5.76900000      -0.65710000      -1.82470000
