21
Properties=species:S:1:pos:R:3 gdb_75612=T pbc="F F F"
C       -1.26110000       0.69940000      -1.20900000
C       -0.13680000      -0.23490000      -0.78970000
C        1.29790000       0.07160000      -1.23160000
O        1.76470000       0.65040000      -2.17340000
C        1.88230000      -0.43080000       0.09210000
C        3.08690000       0.27190000       0.69740000
C        0.43700000      -0.30420000       0.68250000
C        0.19460000       0.95040000       1.51330000
O        0.10220000      -1.47260000       1.40910000
H       -1.05160000       1.73660000      -0.93200000
H       -1.38580000       0.67130000      -2.29560000
H       -2.21510000       0.41120000      -0.75480000
H       -0.36520000      -1.27010000      -1.07490000
H        2.07560000      -1.50690000      -0.00770000
H        2.92100000       1.34830000       0.79770000
H        3.32650000      -0.13270000       1.68560000
H        3.96090000       0.13490000       0.05400000
H        0.50320000       1.85870000       0.98720000
H       -0.87070000       1.05770000       1.75050000
H        0.75000000       0.89320000       2.45370000
H       -0.78360000      -1.36110000       1.77140000
