18
Properties=species:S:1:pos:R:3 gdb_66618=T pbc="F F F"
O       -0.07720000       1.34230000      -0.12250000
C        0.01260000      -0.03340000      -0.01260000
C        1.10720000      -0.85000000      -0.71490000
C       -0.30890000      -0.90390000      -1.20630000
N       -0.56850000      -2.22070000      -0.57250000
C       -1.42510000      -1.84240000       0.58290000
C       -0.45270000      -0.84060000       1.24690000
C        0.73610000      -1.79710000       1.48630000
C        0.87770000      -2.18070000       0.00470000
H        0.64840000       1.73860000       0.37180000
H        1.99850000      -0.44810000      -1.17970000
H       -0.77340000      -0.57870000      -2.12970000
H       -2.35040000      -1.38890000       0.21660000
H       -1.66650000      -2.70710000       1.20880000
H       -0.80440000      -0.23660000       2.08220000
H        1.64030000      -1.29740000       1.84860000
H        0.49380000      -2.63020000       2.15320000
H        1.47240000      -3.05370000      -0.25800000
