25
Properties=species:S:1:pos:R:3 gdb_59047=T pbc="F F F"
C        0.06050000       1.54920000      -0.08450000
C        0.02070000       0.01520000       0.05750000
C        0.78650000      -0.43310000       1.31590000
C       -1.39820000      -0.52830000       0.02300000
C       -1.83090000      -1.25380000      -1.01300000
C       -3.20990000      -1.84840000      -1.13950000
C       -3.98470000      -1.81230000       0.18460000
C       -3.79000000      -0.46270000       0.88210000
C       -2.30720000      -0.22420000       1.19910000
H        1.09600000       1.90270000      -0.13740000
H       -0.45690000       1.87430000      -0.99210000
H       -0.41030000       2.04850000       0.76910000
H        0.54200000      -0.40430000      -0.81240000
H        0.34010000      -0.01910000       2.22650000
H        0.79140000      -1.52370000       1.40960000
H        1.82600000      -0.09100000       1.27590000
H       -1.15100000      -1.43920000      -1.84360000
H       -3.76980000      -1.30660000      -1.91750000
H       -3.13400000      -2.88020000      -1.50680000
H       -5.04740000      -2.01200000       0.00970000
H       -3.61740000      -2.61120000       0.84210000
H       -4.15400000       0.33900000       0.22590000
H       -4.38280000      -0.41070000       1.80190000
H       -2.01120000      -0.84580000       2.05700000
H       -2.16070000       0.81140000       1.52960000
