17
Properties=species:S:1:pos:R:3 gdb_123735=T pbc="F F F"
C       -0.04570000       1.50690000      -0.09770000
C        1.50480000       1.49670000      -0.05860000
C        1.44110000       0.07750000       0.59320000
C       -0.02340000      -0.03610000       0.05900000
C        2.43390000      -0.94320000       0.18930000
N        3.21580000      -1.66400000       0.94330000
C        3.89440000      -2.41230000       0.01460000
N        3.57350000      -2.18860000      -1.22940000
O        2.58840000      -1.19840000      -1.12030000
H       -0.46970000       1.99720000       0.78290000
H       -0.52460000       1.91600000      -0.98900000
H        1.93590000       1.44510000      -1.06120000
H        2.01640000       2.27570000       0.51000000
H        1.46210000       0.14020000       1.68220000
H       -0.75360000      -0.50260000       0.72300000
H       -0.04600000      -0.54270000      -0.90880000
H        4.64730000      -3.14270000       0.27370000
