23
Properties=species:S:1:pos:R:3 gdb_80483=T pbc="F F F"
C        0.48040000       1.70760000       0.13490000
C       -0.00130000       0.25360000       0.21860000
C        0.13960000      -0.50590000      -1.13940000
C        1.08000000      -1.68620000      -0.92540000
C        2.49170000      -1.38650000      -0.48120000
O        3.02180000      -0.08930000      -0.52120000
C        1.45610000      -1.73990000       0.54490000
C        0.69660000      -0.65040000       1.30100000
C        1.54440000       0.07300000       2.35560000
H        1.53720000       1.76280000      -0.13290000
H       -0.09630000       2.24680000      -0.62510000
H        0.33850000       2.23460000       1.08350000
H       -1.06630000       0.29660000       0.47330000
H       -0.83100000      -0.88250000      -1.47810000
H        0.49940000       0.16820000      -1.92670000
H        0.91130000      -2.58740000      -1.50630000
H        3.22910000      -2.16400000      -0.68360000
H        3.17400000       0.14030000      -1.44410000
H        1.58770000      -2.68810000       1.05760000
H       -0.10400000      -1.17500000       1.83880000
H        2.38740000       0.59660000       1.90030000
H        0.94880000       0.79700000       2.92150000
H        1.94790000      -0.64910000       3.07390000
