21
Properties=species:S:1:pos:R:3 gdb_119471=T pbc="F F F"
C        0.45130000       1.42780000      -0.06950000
O        0.81070000       0.06810000      -0.13350000
C        0.03730000      -0.65810000      -1.06480000
C        0.44080000      -2.09550000      -0.99280000
C        0.56870000      -2.99850000       0.24140000
C        1.66210000      -3.82640000      -0.53670000
C        1.41390000      -5.30810000      -0.77980000
C        1.45390000      -2.87080000      -1.72690000
O        0.06520000      -2.93580000      -2.09270000
H        0.59700000       1.93530000      -1.03620000
H       -0.60070000       1.55860000       0.23000000
H        1.09330000       1.90040000       0.67760000
H       -1.03840000      -0.55610000      -0.83490000
H        0.18740000      -0.28920000      -2.09230000
H        0.97100000      -2.47540000       1.11050000
H       -0.34420000      -3.53400000       0.51610000
H        2.64620000      -3.66090000      -0.08700000
H        0.45240000      -5.45340000      -1.28030000
H        2.19710000      -5.74380000      -1.41020000
H        1.39710000      -5.86450000       0.16320000
H        2.15030000      -2.57410000      -2.50400000
