21
Properties=species:S:1:pos:R:3 gdb_74003=T pbc="F F F"
C       -0.06290000       1.47070000      -0.00110000
C       -0.03940000      -0.02380000       0.05400000
C       -1.06920000      -0.87030000       0.03270000
C       -2.53300000      -0.78750000      -0.31360000
C       -2.73390000      -2.14050000      -0.98730000
C       -1.69680000      -2.96490000      -0.81050000
C       -0.62650000      -2.32330000       0.04460000
C        0.85330000      -2.22220000      -0.38870000
C        1.26710000      -0.80940000       0.10760000
H        0.55110000       1.84820000      -0.82910000
H       -1.07850000       1.85800000      -0.12320000
H        0.35180000       1.90980000       0.91610000
H       -3.18660000      -0.69450000       0.56810000
H       -2.77490000       0.06040000      -0.96570000
H       -3.64590000      -2.38760000      -1.52030000
H       -1.64490000      -3.98580000      -1.17360000
H       -0.67110000      -2.75210000       1.06150000
H        1.48550000      -3.02170000       0.00870000
H        0.91790000      -2.25340000      -1.48210000
H        2.04750000      -0.35560000      -0.51520000
H        1.67340000      -0.84660000       1.12980000
