16
Properties=species:S:1:pos:R:3 gdb_125700=T pbc="F F F"
C        0.21570000       1.50040000      -0.12820000
C       -0.02850000       0.03660000       0.05090000
N       -0.55410000      -0.66900000      -0.92360000
O       -0.64870000      -1.97480000      -0.44490000
C       -0.16990000      -2.01850000       0.81030000
C        0.23940000      -0.77890000       1.19000000
C       -0.18500000      -3.31120000       1.51390000
C       -1.07030000      -4.41590000       1.10680000
O        0.32090000      -4.45060000       0.80590000
H        1.27810000       1.73670000      -0.00920000
H       -0.10280000       1.81410000      -1.12390000
H       -0.33590000       2.08310000       0.61660000
H        0.67260000      -0.48580000       2.13220000
H        0.13070000      -3.24790000       2.55370000
H       -1.40970000      -5.12520000       1.86050000
H       -1.72870000      -4.27440000       0.25270000
