16
Properties=species:S:1:pos:R:3 gdb_26719=T pbc="F F F"
C        0.04200000       1.51190000       0.04090000
C        0.04380000       0.02320000      -0.04500000
C        0.02380000      -0.83440000      -1.12160000
O       -0.00410000      -0.53730000      -2.45010000
C        0.03690000      -2.18310000      -0.63710000
C        0.02390000      -3.41240000      -1.41410000
O        0.03640000      -4.53090000      -0.93700000
C        0.06510000      -2.09710000       0.74770000
N        0.06890000      -0.78750000       1.08710000
H        0.93670000       1.90530000       0.54030000
H        0.02080000       1.95500000      -0.96000000
H       -0.83360000       1.90110000       0.57600000
H       -0.00870000       0.41810000      -2.56430000
H        0.00110000      -3.26260000      -2.51430000
H        0.08200000      -2.88640000       1.48050000
H        0.08740000      -0.43790000       2.03000000
