22
Properties=species:S:1:pos:R:3 gdb_80472=T pbc="F F F"
C       -0.24810000       1.52850000       0.22530000
C       -0.00540000       0.05680000      -0.02340000
C        0.60250000      -0.55960000      -1.23600000
C        1.41220000       0.24390000      -2.24710000
O        0.78510000       1.49240000      -2.53130000
C        2.80510000       0.36660000      -1.56150000
C        3.64080000       1.57120000      -1.98700000
C        2.48650000       0.28500000      -0.05390000
N        1.31180000      -0.60670000       0.07410000
H        0.43870000       2.18000000      -0.30990000
H       -1.25910000       1.78620000      -0.10640000
H       -0.18760000       1.73890000       1.29980000
H       -0.77050000      -0.56110000       0.44840000
H        0.20550000      -1.50950000      -1.58580000
H        1.50130000      -0.32960000      -3.18040000
H        1.29110000       1.92210000      -3.22830000
H        3.34670000      -0.55150000      -1.82330000
H        3.12210000       2.50830000      -1.76250000
H        4.60050000       1.58730000      -1.46100000
H        3.86190000       1.55070000      -3.06120000
H        3.31630000      -0.15080000       0.51090000
H        2.29890000       1.28040000       0.36640000
