20
Properties=species:S:1:pos:R:3 gdb_83774=T pbc="F F F"
C       -0.14160000       1.64340000      -0.07360000
C        0.09130000       0.14220000       0.00830000
C        1.13650000      -0.60660000      -0.85520000
O        2.35730000       0.11560000      -0.94280000
C        2.77960000       0.61380000       0.33190000
C        2.18550000      -0.25430000       1.43270000
C        2.48220000      -1.73060000       1.07670000
C        1.16030000      -1.64500000       0.31900000
N        0.68530000      -0.51790000       1.23620000
H        0.75270000       2.20550000      -0.34350000
H       -0.90250000       1.86100000      -0.83020000
H       -0.51310000       2.01520000       0.88720000
H       -0.87750000      -0.36140000      -0.10340000
H        0.89620000      -0.93040000      -1.87110000
H        3.87490000       0.56080000       0.35340000
H        2.49630000       1.66540000       0.45440000
H        2.43520000       0.11600000       2.42970000
H        3.39520000      -1.93700000       0.51430000
H        2.40370000      -2.40050000       1.93480000
H        0.50650000      -2.51360000       0.20300000
