21
Properties=species:S:1:pos:R:3 gdb_98885=T pbc="F F F"
C       -0.06400000       1.56820000      -0.17150000
C        0.16260000       0.06410000      -0.04600000
C        0.81370000      -0.56140000      -1.27070000
O        1.24570000       0.09430000      -2.18930000
C        0.86350000      -2.09610000      -1.29420000
C       -0.42990000      -2.65970000      -1.96960000
C        0.12750000      -3.56210000      -3.08860000
C        1.50710000      -2.94800000      -3.34000000
O        1.96530000      -2.56660000      -2.04660000
H        0.87710000       2.08320000      -0.37810000
H       -0.74450000       1.79430000      -0.99700000
H       -0.49120000       1.97570000       0.74890000
H        0.80940000      -0.16770000       0.81290000
H       -0.77530000      -0.47190000       0.15780000
H        0.97690000      -2.47170000      -0.27010000
H       -1.05790000      -3.20110000      -1.25970000
H       -1.03010000      -1.84880000      -2.39360000
H        0.23670000      -4.59080000      -2.73230000
H       -0.50740000      -3.57270000      -3.97770000
H        2.23510000      -3.64940000      -3.75620000
H        1.44180000      -2.07080000      -3.99780000
