19
Properties=species:S:1:pos:R:3 gdb_28437=T pbc="F F F"
C       -0.07320000       1.53480000       0.01380000
C       -0.02820000       0.02610000      -0.01060000
C        0.01010000      -0.67780000      -1.21720000
C        0.08050000      -2.06460000      -1.23790000
C        0.11200000      -2.78000000      -0.04290000
O        0.17790000      -4.14270000      -0.13050000
C        0.07030000      -2.10800000       1.18730000
C        0.09600000      -2.88220000       2.48210000
C       -0.00010000      -0.71420000       1.17220000
H        0.93400000       1.97030000      -0.00650000
H       -0.61280000       1.93220000      -0.85130000
H       -0.56670000       1.90610000       0.91710000
H       -0.01720000      -0.13380000      -2.15690000
H        0.10720000      -2.61460000      -2.17200000
H        0.19090000      -4.51800000       0.75500000
H        1.00970000      -3.48340000       2.58730000
H        0.05650000      -2.20730000       3.34020000
H       -0.75780000      -3.56810000       2.57220000
H       -0.03570000      -0.19030000       2.12450000
