20
Properties=species:S:1:pos:R:3 gdb_76467=T pbc="F F F"
C       -0.15760000       1.54770000      -0.11330000
C       -0.00850000       0.04410000      -0.00670000
C        1.35520000      -0.61630000      -0.21540000
O        2.42840000       0.24070000      -0.49860000
C        0.72060000      -0.58660000       1.12980000
C        1.17230000      -0.13290000       2.52030000
C       -0.19770000      -0.69770000       2.96520000
N        0.28170000      -1.77960000       1.97160000
C        1.64960000      -1.59760000       2.66300000
H        0.74920000       2.05400000       0.22390000
H       -0.33710000       1.84870000      -1.15060000
H       -0.99930000       1.90440000       0.48980000
H       -0.84070000      -0.53470000      -0.40190000
H        1.36160000      -1.56220000      -0.75860000
H        3.20630000      -0.09320000      -0.04030000
H        1.67140000       0.79440000       2.81820000
H       -0.29060000      -1.06680000       3.99050000
H       -1.10070000      -0.17830000       2.63830000
H        2.49170000      -1.93290000       2.05210000
H        1.68610000      -2.02920000       3.66720000
