20
Properties=species:S:1:pos:R:3 gdb_95710=T pbc="F F F"
C        0.56020000       1.65270000      -0.00610000
C       -0.04460000       0.24960000       0.06910000
C        0.06860000      -0.46130000      -1.29060000
O       -0.57500000      -1.72550000      -1.29910000
C        0.22950000      -2.81260000      -0.91530000
C        0.60120000      -2.88510000       0.57280000
O        1.34840000      -3.75290000       0.96200000
C        0.04020000      -1.80510000       1.49680000
N        0.54890000      -0.46760000       1.19540000
H        1.63190000       1.60680000      -0.23640000
H        0.07920000       2.24860000      -0.78730000
H        0.44280000       2.16770000       0.95000000
H       -1.11790000       0.33530000       0.28940000
H       -0.42590000       0.14040000      -2.06220000
H        1.12880000      -0.56660000      -1.57570000
H       -0.33720000      -3.72200000      -1.14640000
H        1.16220000      -2.85920000      -1.49910000
H       -1.05290000      -1.78030000       1.42180000
H        0.31540000      -2.08070000       2.51950000
H        1.56250000      -0.47260000       1.13460000
