19
Properties=species:S:1:pos:R:3 gdb_114442=T pbc="F F F"
O       -0.03950000       1.42380000      -0.06010000
C        0.02880000       0.00720000       0.04990000
C       -1.39140000      -0.53260000      -0.01310000
C       -2.13200000      -0.22470000      -1.34980000
C       -2.91370000      -1.50250000      -1.65150000
C       -2.11210000      -2.78840000      -1.72090000
O       -0.81950000      -2.60730000      -1.13740000
C       -1.46960000      -2.05760000       0.06280000
C       -2.86150000      -2.45670000      -0.47060000
H        0.85800000       1.76220000      -0.12560000
H        0.61440000      -0.43520000      -0.76860000
H        0.50090000      -0.29220000       1.00050000
H       -1.95960000      -0.11530000       0.82890000
H       -2.79780000       0.63550000      -1.25010000
H       -1.41680000       0.01060000      -2.14390000
H       -3.81910000      -1.46700000      -2.24790000
H       -2.22790000      -3.56520000      -2.46780000
H       -1.08490000      -2.52770000       0.97030000
H       -3.68430000      -2.92730000       0.04840000
