19
Properties=species:S:1:pos:R:3 gdb_111816=T pbc="F F F"
C        0.18040000       1.78030000      -0.12170000
C        0.29320000       0.27410000       0.14310000
C        0.68550000      -0.50380000      -1.11290000
C        0.84180000      -2.05810000      -1.11930000
C       -0.23360000      -2.85270000      -0.36280000
O       -1.14630000      -2.79450000      -1.48830000
C       -0.14520000      -2.17010000      -2.32630000
C       -0.33490000      -0.63500000      -2.26840000
O       -1.03560000       0.14020000      -2.85110000
H        1.14390000       2.19860000      -0.43330000
H       -0.54270000       1.97950000      -0.91690000
H       -0.14010000       2.31300000       0.77850000
H        1.03510000       0.08280000       0.92900000
H       -0.66500000      -0.09990000       0.52190000
H        1.59800000      -0.06330000      -1.54140000
H        1.85650000      -2.45000000      -1.12570000
H        0.05040000      -3.89010000      -0.14750000
H       -0.65820000      -2.40380000       0.54120000
H        0.01520000      -2.68600000      -3.27620000
