18
Properties=species:S:1:pos:R:3 gdb_105984=T pbc="F F F"
C       -0.15080000       1.45740000       0.11520000
C        0.11950000      -0.00480000       0.01640000
C        0.23680000      -0.97350000      -1.19490000
C       -0.49770000      -1.99600000      -0.37160000
C        1.00400000      -1.96410000      -0.30690000
C        0.87560000      -0.96530000       0.87310000
C        1.55210000      -0.85380000       2.19690000
O        1.32920000      -2.00440000       2.99530000
N       -0.64430000      -1.04230000       0.81070000
H        0.67170000       2.04130000      -0.31260000
H       -1.07040000       1.71930000      -0.41990000
H       -0.27510000       1.75130000       1.16170000
H        0.29590000      -0.82410000      -2.26360000
H       -1.20640000      -2.77270000      -0.62920000
H        1.74810000      -2.69660000      -0.58420000
H        2.63740000      -0.76730000       2.07280000
H        1.20160000       0.06290000       2.69830000
H        0.37450000      -2.14540000       2.99180000
