16
Properties=species:S:1:pos:R:3 gdb_67157=T pbc="F F F"
O       -0.13850000       1.43640000      -0.01880000
C        0.01140000       0.07120000       0.00090000
C        0.69480000      -0.88130000       1.06570000
C       -0.68000000      -1.54210000       1.31360000
C       -1.25300000      -0.87560000       0.02400000
C       -0.70490000      -1.52270000      -1.25620000
O       -1.21340000      -2.14200000      -2.14470000
C        0.68740000      -0.87490000      -1.07930000
N        1.42480000      -1.61940000      -0.00870000
H        0.72930000       1.84840000      -0.09900000
H        1.29610000      -0.58460000       1.92620000
H       -0.69680000      -2.63190000       1.37810000
H       -1.16670000      -1.10990000       2.19240000
H       -2.28860000      -0.53810000       0.02120000
H        1.25310000      -0.58690000      -1.96680000
H        2.39850000      -1.33030000      -0.02110000
