22
Properties=species:S:1:pos:R:3 gdb_86784=T pbc="F F F"
C       -0.03490000       1.58210000      -0.14890000
C        0.08090000       0.07350000       0.00920000
C        1.08540000      -0.70960000      -0.87980000
C        1.34420000      -1.65280000       0.32150000
C        2.75860000      -2.19630000       0.56220000
C        3.17770000      -3.11740000      -0.49330000
N        3.48880000      -3.84260000      -1.33780000
C        0.76620000      -0.55320000       1.27430000
C        1.79950000       0.33200000       1.96840000
H        0.93620000       2.07950000      -0.06010000
H       -0.44290000       1.83390000      -1.13400000
H       -0.70270000       2.01500000       0.60450000
H       -0.91360000      -0.37420000      -0.09900000
H        0.71880000      -1.15530000      -1.80690000
H        1.96800000      -0.10410000      -1.11450000
H        0.65090000      -2.49850000       0.28210000
H        3.48600000      -1.37900000       0.61360000
H        2.80970000      -2.72550000       1.52170000
H        0.06880000      -0.93500000       2.02680000
H        2.53500000       0.74740000       1.27150000
H        1.31210000       1.17590000       2.46670000
H        2.34750000      -0.22690000       2.73480000
