19
Properties=species:S:1:pos:R:3 gdb_90626=T pbc="F F F"
C       -0.02550000       1.56010000      -0.06730000
C        0.06770000       0.04120000       0.02800000
C       -1.10780000      -0.63020000      -0.47910000
C       -2.09780000      -1.16140000      -0.90940000
C        1.34100000      -0.75370000      -0.20720000
C        2.57330000       0.00310000       0.29540000
C        1.95600000      -0.04330000       1.74040000
O        1.73620000       1.15200000       2.45790000
C        0.70610000      -0.71610000       1.18830000
H        0.81770000       2.05190000       0.41450000
H       -0.07860000       1.87060000      -1.11590000
H       -0.93550000       1.90560000       0.43190000
H       -2.97140000      -1.63120000      -1.28760000
H        1.35280000      -1.57630000      -0.91020000
H        3.49830000      -0.57250000       0.21610000
H        2.73870000       0.99740000      -0.12760000
H        2.51400000      -0.76350000       2.35370000
H        2.57800000       1.44390000       2.82240000
H        0.14080000      -1.48200000       1.70430000
