19
Properties=species:S:1:pos:R:3 gdb_58016=T pbc="F F F"
C        0.34670000       1.41040000      -0.05610000
N        0.15050000      -0.02840000      -0.00470000
C        0.05880000      -0.64690000       1.30300000
C       -0.04360000      -0.70920000      -1.18490000
O        0.09190000      -0.19270000      -2.28440000
N       -0.37610000      -2.05230000      -1.04820000
C       -0.69900000      -2.83100000      -2.22450000
C        0.17010000      -4.07150000      -2.33810000
O       -0.20040000      -5.12140000      -2.79280000
H        1.27340000       1.69240000       0.45820000
H        0.41170000       1.70640000      -1.10150000
H       -0.48690000       1.94360000       0.42000000
H       -0.97640000      -0.74540000       1.66490000
H        0.53030000      -1.63410000       1.30440000
H        0.60040000      -0.02940000       2.02410000
H       -0.76690000      -2.36600000      -0.17650000
H       -1.75370000      -3.12550000      -2.26810000
H       -0.49000000      -2.18570000      -3.08750000
H        1.20820000      -3.92170000      -1.96110000
