17
Properties=species:S:1:pos:R:3 gdb_14111=T pbc="F F F"
C        0.57560000       0.49640000      -0.99210000
C       -0.16550000       0.34780000       0.32040000
O        0.23730000       0.83100000       1.35840000
C       -1.43270000      -0.43200000       0.31070000
C       -2.34870000      -0.64130000       1.52460000
C       -2.60950000      -2.10970000       1.05400000
C       -1.69010000      -1.86500000      -0.14990000
N       -2.11340000      -0.73660000      -0.94910000
H        1.53480000       0.98260000      -0.81110000
H        0.72690000      -0.47500000      -1.47300000
H       -0.02280000       1.09220000      -1.68850000
H       -1.79730000      -0.58820000       2.46340000
H       -3.21130000       0.03000000       1.58090000
H       -2.21350000      -2.84780000       1.75440000
H       -3.63930000      -2.38330000       0.80200000
H       -0.99740000      -2.57070000      -0.59520000
H       -3.11540000      -0.56010000      -0.89290000
