20
Properties=species:S:1:pos:R:3 gdb_110945=T pbc="F F F"
C       -0.23860000       1.41480000      -0.38200000
O       -0.13700000       0.09880000       0.12160000
C       -1.33250000      -0.62970000       0.01370000
C       -1.73160000      -1.30120000      -1.33250000
N       -1.81130000      -2.66030000      -0.68240000
C       -0.46630000      -2.98300000      -0.14510000
C        0.83620000      -2.71670000      -0.86410000
O        1.05980000      -3.67740000      -1.88830000
C       -1.29340000      -2.02340000       0.61460000
H        0.72830000       1.89770000      -0.22460000
H       -0.47040000       1.42860000      -1.45740000
H       -1.01520000       1.98940000       0.14610000
H       -2.16870000      -0.04240000       0.41950000
H       -2.72100000      -1.01650000      -1.69500000
H       -1.01340000      -1.22070000      -2.15360000
H       -0.49250000      -3.98880000       0.27230000
H        0.89650000      -1.69070000      -1.24040000
H        1.65900000      -2.83880000      -0.15170000
H        0.28140000      -3.68270000      -2.45530000
H       -1.71480000      -2.28000000       1.58140000
