18
Properties=species:S:1:pos:R:3 gdb_28014=T pbc="F F F"
O        1.14330000       0.99580000       0.17050000
C        0.40390000      -0.15120000       0.10130000
C        0.58830000      -1.12980000      -0.84700000
N       -0.31980000      -2.14150000      -0.58240000
C       -1.07610000      -1.79340000       0.50420000
C       -0.65090000      -0.56520000       0.96190000
C       -0.54630000      -3.27510000      -1.42480000
C        0.58120000      -4.24580000      -1.66000000
C       -0.59500000      -4.64590000      -0.80450000
H        0.81810000       1.51910000       0.90810000
H        1.28000000      -1.19670000      -1.66890000
H       -1.85590000      -2.44710000       0.85990000
H       -1.03570000      -0.03480000       1.82060000
H       -1.21560000      -3.08800000      -2.26150000
H        0.67880000      -4.67650000      -2.64980000
H        1.51830000      -4.04370000      -1.15530000
H       -0.43280000      -4.71210000       0.26470000
H       -1.31410000      -5.35360000      -1.20050000
