19
Properties=species:S:1:pos:R:3 gdb_39512=T pbc="F F F"
C        0.16220000       1.35950000      -0.27210000
C        1.37660000       2.15010000       0.21720000
O        2.64460000       1.60460000      -0.11680000
C        2.89060000       1.43110000      -1.49370000
C        2.41520000       0.11800000      -2.09650000
O        2.99890000      -1.09690000      -1.63320000
C        1.59390000      -0.90820000      -1.42400000
C        1.15080000      -0.81900000       0.02480000
O        0.04150000       0.04770000       0.24060000
H       -0.73530000       1.88900000       0.06720000
H        0.13390000       1.35940000      -1.37210000
H        1.29010000       3.17760000      -0.17730000
H        1.36830000       2.20240000       1.31020000
H        2.44880000       2.25430000      -2.07910000
H        3.97820000       1.48810000      -1.62230000
H        2.33460000       0.17110000      -3.18650000
H        0.96220000      -1.52280000      -2.06790000
H        0.80330000      -1.80280000       0.35600000
H        2.01440000      -0.53270000       0.63040000
