20
Properties=species:S:1:pos:R:3 gdb_109558=T pbc="F F F"
C       -0.13480000       1.64500000       0.21490000
C       -0.03720000       0.13540000       0.03550000
C        0.60880000      -0.44520000      -1.27120000
C        1.21960000       0.44960000      -2.35030000
O        2.02260000      -0.33230000      -3.21260000
C        1.67760000      -1.03020000      -0.33450000
O        2.70720000      -1.64800000      -0.49550000
N        1.06240000      -0.51900000       0.77270000
C        1.38970000      -0.59340000       2.17330000
H        0.82270000       2.13820000       0.02750000
H       -0.87960000       2.06110000      -0.47080000
H       -0.45090000       1.89420000       1.23340000
H       -1.00850000      -0.32540000       0.25770000
H        0.00010000      -1.21880000      -1.74650000
H        0.44410000       0.91210000      -2.97030000
H        1.80090000       1.26340000      -1.88900000
H        2.62540000      -0.84080000      -2.65170000
H        2.31550000      -1.16590000       2.26740000
H        1.54700000       0.40160000       2.60580000
H        0.60150000      -1.09990000       2.74420000
