13
Properties=species:S:1:pos:R:3 gdb_10673=T pbc="F F F"
N        0.27350000       0.77670000       0.91980000
C       -0.04580000       0.13200000      -0.23360000
O        0.62440000       0.13000000      -1.24260000
C       -1.34550000      -0.66750000      -0.13510000
C       -1.42170000      -1.73570000       0.89240000
O       -2.09070000      -0.49560000       1.09040000
C       -2.11280000      -0.77730000      -1.34640000
C       -2.76430000      -0.86070000      -2.35130000
H        1.07920000       1.38000000       0.91580000
H       -0.42240000       0.87090000       1.64140000
H       -2.06720000      -2.59040000       0.70400000
H       -0.55650000      -1.91210000       1.52840000
H       -3.33290000      -0.93170000      -3.24570000
