15
Properties=species:S:1:pos:R:3 gdb_26564=T pbc="F F F"
N       -0.26330000       1.39040000       0.06360000
C       -0.06730000      -0.03040000       0.01830000
C       -1.20680000      -0.78220000       0.02360000
O       -2.43410000      -0.24810000       0.06790000
N       -1.16420000      -2.14290000      -0.01640000
C        0.04620000      -2.79600000      -0.06360000
C        1.21190000      -2.11420000      -0.07140000
C        1.24950000      -0.64570000      -0.02990000
O        2.28830000       0.01570000      -0.03550000
H        0.23640000       1.76980000       0.86590000
H        0.19640000       1.81570000      -0.73960000
H       -2.25720000       0.71450000       0.09160000
H       -2.03480000      -2.64900000      -0.01050000
H       -0.01670000      -3.87670000      -0.09320000
H        2.15480000      -2.64540000      -0.10880000
