20
Properties=species:S:1:pos:R:3 gdb_110396=T pbc="F F F"
C        0.00930000       1.38820000      -0.27930000
O       -0.05500000       0.14910000       0.39480000
C       -1.27810000      -0.50580000       0.23320000
C       -1.49730000      -1.39100000      -1.00560000
C       -0.56790000      -2.52850000      -0.48290000
C       -1.71630000      -3.51670000      -0.69340000
C       -1.85720000      -4.76770000       0.14940000
N       -2.48770000      -2.28150000      -0.20540000
C       -1.31080000      -1.93590000       0.75560000
H        0.98220000       1.83020000      -0.05290000
H       -0.08160000       1.27000000      -1.36920000
H       -0.78150000       2.07440000       0.06040000
H       -2.13130000       0.12990000       0.51300000
H       -1.71500000      -1.13490000      -2.04430000
H        0.50970000      -2.64250000      -0.63040000
H       -1.95900000      -3.73150000      -1.74250000
H       -1.60340000      -4.58860000       1.19850000
H       -2.88580000      -5.14080000       0.10860000
H       -1.19770000      -5.55780000      -0.22580000
H       -1.30150000      -2.28540000       1.78780000
