18
Properties=species:S:1:pos:R:3 gdb_10261=T pbc="F F F"
C       -0.03080000       1.57170000       0.03870000
C        0.01020000       0.03800000       0.04260000
C        0.80610000      -0.48900000       1.24220000
C       -1.43540000      -0.55480000       0.02620000
C       -2.17710000      -0.09440000      -1.23380000
O       -3.09200000       0.68320000      -1.23940000
C       -1.44870000      -2.01350000       0.03580000
C       -1.47990000      -3.21430000      -0.02310000
H        0.98520000       1.97730000       0.01960000
H       -0.56970000       1.97300000      -0.82400000
H       -0.52460000       1.95050000       0.94090000
H        0.50660000      -0.30460000      -0.87550000
H        0.34630000      -0.17000000       2.18490000
H        0.85580000      -1.58040000       1.24210000
H        1.82810000      -0.09790000       1.22160000
H       -1.99050000      -0.16200000       0.88680000
H       -1.78190000      -0.54560000      -2.17140000
H       -1.50920000      -4.27570000      -0.04910000
