16
Properties=species:S:1:pos:R:3 gdb_54430=T pbc="F F F"
N       -0.01480000       1.12390000       0.26760000
C       -0.00870000      -0.19980000      -0.02170000
O        1.00150000      -0.88480000      -0.15020000
C       -1.33590000      -0.83390000      -0.11750000
C       -1.66420000      -2.04370000      -0.96980000
C       -1.64090000      -2.17500000       0.52460000
O       -0.79640000      -2.99450000       1.23140000
C       -2.82670000      -1.44770000       1.15370000
O       -2.53030000      -0.23070000       0.39480000
H        0.85660000       1.57470000       0.49380000
H       -0.88450000       1.57620000       0.49790000
H       -2.59240000      -2.02410000      -1.53420000
H       -0.80570000      -2.48420000      -1.46480000
H        0.10740000      -2.73120000       0.99590000
H       -3.83460000      -1.82240000       0.94870000
H       -2.68710000      -1.27960000       2.22600000
