16
Properties=species:S:1:pos:R:3 gdb_12206=T pbc="F F F"
C        0.51620000       1.40380000      -0.25960000
C        0.01670000       0.02310000       0.11730000
O        0.53620000      -1.01750000      -0.76440000
C        1.30510000      -1.62500000       0.27950000
C        2.74950000      -1.43700000       0.11660000
N        3.88750000      -1.24380000       0.04450000
C        0.65120000      -0.66980000       1.35600000
N        1.42070000       0.13210000       2.26040000
H        1.60860000       1.44330000      -0.29990000
H        0.13380000       1.67650000      -1.24750000
H        0.16620000       2.14330000       0.46670000
H       -1.07910000       0.00160000       0.11100000
H        1.08940000      -2.69440000       0.38460000
H       -0.09440000      -1.22400000       1.92910000
H        1.70030000      -0.39520000       3.07960000
H        2.26620000       0.49180000       1.82910000
