19
Properties=species:S:1:pos:R:3 gdb_107738=T pbc="F F F"
C       -0.03950000       1.31520000      -0.09120000
O       -0.08770000      -0.07580000       0.18270000
C       -1.35840000      -0.60380000       0.11690000
C       -2.37810000      -0.51830000       1.32680000
C       -2.99740000      -1.70050000       0.57670000
C       -3.96200000      -1.41850000      -0.32200000
C       -3.35040000      -1.28020000      -1.71420000
C       -1.87170000      -1.15050000      -1.30330000
C       -1.66470000      -2.03860000      -0.12290000
H        1.00720000       1.61830000      -0.01740000
H       -0.41200000       1.53610000      -1.10080000
H       -0.62980000       1.89210000       0.63400000
H       -1.81920000      -0.74260000       2.24280000
H       -3.00710000       0.36550000       1.46730000
H       -4.85530000      -0.85810000      -0.06020000
H       -3.49090000      -2.11390000      -2.41820000
H       -3.77070000      -0.38730000      -2.19370000
H       -1.09010000      -1.06890000      -2.05630000
H       -1.04990000      -2.92150000      -0.00560000
