17
Properties=species:S:1:pos:R:3 gdb_114304=T pbc="F F F"
O       -0.07870000       1.47350000      -0.18580000
C        0.03390000       0.13390000       0.26570000
C       -1.30320000      -0.57530000       0.09830000
N       -1.83100000      -0.57710000      -1.31560000
C       -2.16100000      -2.00410000      -1.17420000
C       -0.88520000      -2.80160000      -1.08380000
C        0.31820000      -2.44150000      -1.78650000
N        1.28800000      -2.19340000      -2.36610000
C       -1.44340000      -2.10370000       0.15730000
H       -0.21300000       1.41980000      -1.13950000
H        0.83010000      -0.40190000      -0.26330000
H        0.30060000       0.17720000       1.32750000
H       -2.03740000      -0.12470000       0.77550000
H       -2.66530000      -0.00760000      -1.39680000
H       -3.08710000      -2.43470000      -1.53510000
H       -1.04720000      -3.87530000      -1.04220000
H       -1.65680000      -2.68530000       1.04420000
