22
Properties=species:S:1:pos:R:3 gdb_76204=T pbc="F F F"
C       -0.02690000       0.59770000      -2.11770000
N        0.14080000      -0.39310000      -1.06520000
C        1.37680000      -0.46630000      -0.26220000
C        1.83940000      -1.88190000       0.02530000
C        2.50860000       0.52350000      -0.47380000
C        0.09300000       0.01880000       0.31900000
C       -0.24450000       1.38710000       0.92010000
O       -1.04370000       0.75560000       1.94120000
C       -0.82600000      -0.56350000       1.38890000
H        0.36090000       1.59980000      -1.88320000
H        0.47110000       0.24450000      -3.02600000
H       -1.09450000       0.69690000      -2.33940000
H        2.46410000      -2.25770000      -0.79320000
H        2.43430000      -1.92170000       0.94490000
H        0.98540000      -2.55460000       0.13100000
H        2.16110000       1.54950000      -0.61220000
H        3.17730000       0.51720000       0.39360000
H        3.10710000       0.24830000      -1.34990000
H        0.58950000       1.96030000       1.34530000
H       -0.84240000       2.05190000       0.28120000
H       -1.75030000      -1.01240000       1.00330000
H       -0.36700000      -1.24320000       2.11790000
