19
Properties=species:S:1:pos:R:3 gdb_104286=T pbc="F F F"
C        0.24070000       1.54540000       0.25670000
C        0.06540000       0.03710000       0.05750000
C        0.71130000      -0.47920000      -1.22740000
O        0.24210000       0.18600000      -2.37260000
C        2.25300000      -0.57020000      -1.21760000
O        2.21900000      -2.00920000      -1.09690000
C        0.80730000      -2.04640000      -1.35180000
C        0.04920000      -2.89950000      -0.36670000
O       -1.15080000      -3.01890000      -0.38730000
H        1.29860000       1.81710000       0.33670000
H       -0.17960000       2.10510000      -0.58280000
H       -0.25740000       1.87490000       1.17260000
H        0.49490000      -0.50760000       0.90780000
H       -1.00050000      -0.22650000       0.04300000
H       -0.72070000       0.21690000      -2.33470000
H        2.69420000      -0.24510000      -2.16650000
H        2.77950000      -0.10230000      -0.37920000
H        0.56870000      -2.36530000      -2.37600000
H        0.68810000      -3.39220000       0.40020000
