23
Properties=species:S:1:pos:R:3 gdb_101722=T pbc="F F F"
C        0.15670000       1.24390000       0.48210000
C       -0.01590000      -0.06640000      -0.28960000
C       -1.39510000      -0.70680000      -0.09200000
O       -2.44380000       0.18530000      -0.48070000
C       -1.51910000      -2.05760000      -0.81090000
C       -2.85260000      -2.72820000      -0.56000000
C       -3.02240000      -4.21800000      -0.78820000
C       -3.02590000      -3.65210000       0.61120000
O       -1.90910000      -3.84270000       1.43490000
H        1.12880000       1.70250000       0.27670000
H       -0.62690000       1.95620000       0.21080000
H        0.08830000       1.07330000       1.56210000
H        0.13790000       0.10830000      -1.36540000
H        0.75320000      -0.78790000       0.01310000
H       -1.56270000      -0.86940000       0.97990000
H       -2.32600000       0.37340000      -1.41910000
H       -1.37800000      -1.90100000      -1.89120000
H       -0.70930000      -2.71300000      -0.47610000
H       -3.70870000      -2.10120000      -0.78710000
H       -3.95020000      -4.59010000      -1.20970000
H       -2.13530000      -4.77130000      -1.08120000
H       -3.97700000      -3.61890000       1.14220000
H       -1.89340000      -4.76630000       1.70550000
