21
Properties=species:S:1:pos:R:3 gdb_114633=T pbc="F F F"
C       -0.00810000       1.40890000      -0.35480000
O       -0.08830000       0.16310000       0.30120000
C       -1.29970000      -0.51110000       0.06950000
C       -1.52900000      -1.24230000      -1.30540000
C       -1.73220000      -2.55020000      -0.53220000
C       -0.46880000      -2.86580000       0.23620000
C       -1.43240000      -1.84800000       0.78530000
O       -2.06650000      -2.00920000       1.99700000
C       -1.22150000      -1.74100000       3.10770000
H        0.95570000       1.85360000      -0.09530000
H       -0.06530000       1.30310000      -1.44860000
H       -0.81200000       2.09000000      -0.03350000
H       -2.15480000       0.13930000       0.30730000
H       -2.41350000      -0.88620000      -1.83730000
H       -0.66940000      -1.23190000      -1.98310000
H       -2.48310000      -3.30180000      -0.73790000
H       -0.49020000      -3.80840000       0.77380000
H        0.50380000      -2.57730000      -0.15320000
H       -0.36680000      -2.43080000       3.13340000
H       -0.83750000      -0.71310000       3.08250000
H       -1.82550000      -1.88010000       4.00720000
