20
Properties=species:S:1:pos:R:3 gdb_56170=T pbc="F F F"
C        0.32010000       1.52630000       0.18130000
C       -0.07950000       0.07990000      -0.04800000
C        1.00960000      -0.94730000      -0.22660000
C        0.17860000      -0.93680000       1.03630000
N       -1.27810000      -0.13920000      -0.84230000
H       -1.17250000       0.29390000      -1.75260000
H       -2.05530000      -1.87620000      -0.70930000
C       -2.55040000       0.24990000      -0.22060000
C       -3.36280000      -0.97560000       0.23460000
O       -2.85840000      -2.13830000      -0.20420000
O       -4.35920000      -0.89210000       0.89900000
H        1.22810000       1.59220000       0.78750000
H        0.51880000       2.03180000      -0.77170000
H       -0.46430000       2.08740000       0.70090000
H        0.83230000      -1.74500000      -0.93860000
H        2.03900000      -0.61120000      -0.16960000
H        0.64070000      -0.58980000       1.95370000
H       -0.54520000      -1.73150000       1.17140000
H       -2.42450000       0.90400000       0.64750000
H       -3.17560000       0.79390000      -0.93580000
