14
Properties=species:S:1:pos:R:3 gdb_129238=T pbc="F F F"
N       -0.02600000       1.34440000       0.13520000
C        0.05270000       0.07720000       0.01600000
N        1.08600000      -0.84430000      -0.05270000
N        0.62780000      -2.12650000      -0.17920000
N       -0.63630000      -2.08390000      -0.19260000
N       -1.03080000      -0.78780000      -0.07000000
C       -2.42720000      -0.39500000      -0.09450000
C       -3.00370000      -0.36590000      -1.43660000
C       -3.49220000      -0.34540000      -2.53270000
H        0.88750000       1.78320000       0.19880000
H        2.07510000      -0.67020000      -0.03620000
H       -2.98640000      -1.08300000       0.54740000
H       -2.45860000       0.60200000       0.35710000
H       -3.91990000      -0.32540000      -3.50470000
