23
Properties=species:S:1:pos:R:3 gdb_93839=T pbc="F F F"
C       -0.07180000       1.52170000       0.07220000
C        0.01240000       0.00550000       0.01090000
C        0.69760000      -0.50190000      -1.25760000
O        0.88830000      -1.90700000      -1.21750000
C        1.59720000      -2.35830000      -0.05810000
C        3.08030000      -1.97850000      -0.10850000
C        0.85900000      -1.85670000       1.19590000
C        1.51830000      -2.22390000       2.51640000
O        0.74400000      -0.43680000       1.15140000
H        0.92820000       1.96420000       0.02410000
H       -0.66540000       1.91020000      -0.76110000
H       -0.53950000       1.83680000       1.00850000
H       -1.00080000      -0.43100000       0.05100000
H        0.07640000      -0.30540000      -2.13740000
H        1.65430000       0.02700000      -1.39130000
H        1.50550000      -3.44980000      -0.09910000
H        3.23480000      -0.91990000       0.11560000
H        3.65230000      -2.56200000       0.61850000
H        3.47820000      -2.19080000      -1.10440000
H       -0.15440000      -2.29210000       1.15990000
H        2.49890000      -1.75020000       2.61030000
H        0.89740000      -1.88370000       3.34930000
H        1.64390000      -3.30820000       2.59840000
