15
Properties=species:S:1:pos:R:3 gdb_126464=T pbc="F F F"
C        0.14420000       1.53230000       0.05320000
C       -0.08050000       0.01760000      -0.07830000
C        0.62350000      -0.56100000      -1.26080000
N       -0.01160000      -1.13840000      -2.25380000
O        0.99970000      -1.52170000      -3.12970000
C        2.14620000      -1.12980000      -2.56670000
C        3.44080000      -1.38710000      -3.24480000
O        3.54490000      -1.94180000      -4.30680000
N        1.99210000      -0.53380000      -1.42100000
H        1.21040000       1.76130000       0.12850000
H       -0.25940000       2.06500000      -0.81290000
H       -0.35400000       1.91170000       0.94920000
H        0.29090000      -0.48860000       0.82010000
H       -1.14530000      -0.21280000      -0.16790000
H        4.30200000      -1.00970000      -2.66120000
