15
Properties=species:S:1:pos:R:3 gdb_15299=T pbc="F F F"
O       -0.16490000       0.58570000      -0.45350000
C        0.07140000       1.68800000      -0.02250000
N        1.27630000       2.06960000       0.54410000
C        2.57590000       1.67670000       0.05410000
C        2.16310000       3.12190000       0.08810000
C        1.88230000       3.86210000      -1.21290000
C        0.91600000       4.94390000      -1.05250000
C        0.12020000       5.83050000      -0.89620000
H       -0.67800000       2.49890000       0.02900000
H        3.27370000       1.29570000       0.79420000
H        2.60550000       1.17580000      -0.91100000
H        2.55640000       3.75180000       0.88350000
H        2.82930000       4.26740000      -1.59220000
H        1.52520000       3.14950000      -1.96740000
H       -0.58480000       6.61460000      -0.76910000
