16
Properties=species:S:1:pos:R:3 gdb_35992=T pbc="F F F"
N       -0.19400000      -1.09210000       0.82680000
C       -0.10780000      -0.05580000       0.32550000
C       -0.01410000       1.26300000      -0.31590000
C        1.33960000       1.81200000      -0.30150000
C        2.45550000       2.26170000      -0.28820000
C        3.79090000       2.81720000      -0.28110000
C        4.38350000       3.36530000      -1.61120000
O        4.72080000       4.61800000      -0.99000000
C        3.99270000       4.28170000       0.20410000
H       -0.38080000       1.16880000      -1.34620000
H       -0.71040000       1.94130000       0.19420000
H        4.48290000       2.13100000       0.21430000
H        5.26340000       2.84380000      -2.00170000
H        3.64070000       3.48320000      -2.40980000
H        3.05830000       4.84900000       0.29570000
H        4.59360000       4.41440000       1.10960000
