17
Properties=species:S:1:pos:R:3 gdb_7309=T pbc="F F F"
C       -0.14730000       1.61510000       1.18490000
C       -0.08290000       0.39940000       0.26620000
O        0.62560000      -0.67970000       0.88000000
C        1.95450000      -0.75940000       0.66450000
N        2.63830000      -1.63620000       1.25860000
C       -1.48610000      -0.09240000      -0.13890000
C       -1.71660000      -1.58400000      -0.20420000
O       -2.33660000       0.72100000      -0.41310000
H        0.85120000       2.03030000       1.34660000
H       -0.78750000       2.37520000       0.73400000
H       -0.56610000       1.33150000       2.15430000
H        0.41930000       0.67070000      -0.67640000
H        2.32380000      -0.01680000      -0.05760000
H        3.61230000      -1.57400000       0.97020000
H       -0.97820000      -2.05910000      -0.85870000
H       -1.57340000      -2.02940000       0.78500000
H       -2.72600000      -1.77700000      -0.56790000
