16
Properties=species:S:1:pos:R:3 gdb_10647=T pbc="F F F"
N       -0.27490000       1.37610000       0.12510000
C       -0.16000000      -0.05450000       0.08470000
C       -0.68610000      -0.99170000       1.14340000
C       -1.40930000      -0.87680000      -0.20250000
C       -2.77720000      -0.17690000      -0.29670000
O       -3.06670000       0.65770000       0.81240000
C       -1.27780000      -1.97630000      -1.12050000
N       -1.19180000      -2.85780000      -1.86600000
H       -1.10380000       1.65210000       0.64320000
H        0.53260000       1.77540000       0.59270000
H        0.73420000      -0.38440000      -0.43540000
H       -0.16010000      -1.91600000       1.35280000
H       -1.19120000      -0.54210000       1.99110000
H       -2.78060000       0.47670000      -1.17390000
H       -3.55860000      -0.93370000      -0.43860000
H       -3.33670000       0.09980000       1.54860000
