20
Properties=species:S:1:pos:R:3 gdb_79156=T pbc="F F F"
C       -0.44980000       1.20860000      -0.24440000
C       -0.22460000      -0.28890000      -0.09690000
O        0.72990000      -0.75660000      -1.08400000
C        1.72330000      -1.35740000      -0.29870000
C        2.00810000      -0.53570000       0.99260000
C        0.45930000      -0.73900000       1.18860000
C        1.10980000      -2.13970000       0.90020000
N        2.35720000      -1.82700000       1.67620000
C        2.26070000      -1.85680000       3.13170000
H        0.47590000       1.76330000      -0.06320000
H       -0.79560000       1.44180000      -1.25530000
H       -1.20800000       1.55550000       0.46580000
H       -1.17090000      -0.82540000      -0.25440000
H        2.53290000      -1.77560000      -0.89140000
H        2.60260000       0.37130000       1.11240000
H       -0.03170000      -0.52100000       2.13430000
H        0.64000000      -3.12480000       0.90940000
H        2.27820000      -2.90020000       3.46360000
H        3.14260000      -1.36220000       3.55240000
H        1.36630000      -1.37860000       3.56170000
