22
Properties=species:S:1:pos:R:3 gdb_33162=T pbc="F F F"
C        0.00100000       1.54830000       0.08340000
C        0.03010000       0.01860000       0.04880000
C        0.65380000      -0.52180000      -1.24600000
N        0.71010000      -1.97150000      -1.30320000
C        1.74120000      -2.72950000      -0.79460000
C        1.42190000      -4.05640000      -0.94620000
C        0.14480000      -4.10740000      -1.56800000
C       -0.27880000      -2.81220000      -1.77730000
C       -1.53680000      -2.30820000      -2.40630000
H        1.01050000       1.96790000       0.00960000
H       -0.58690000       1.95500000      -0.74700000
H       -0.44270000       1.91380000       1.01390000
H        0.60010000      -0.37050000       0.90050000
H       -0.98570000      -0.38080000       0.14990000
H        0.09090000      -0.15840000      -2.11200000
H        1.67540000      -0.14030000      -1.35270000
H        2.61250000      -2.25090000      -0.37520000
H        2.03820000      -4.89360000      -0.65610000
H       -0.40640000      -4.99330000      -1.84680000
H       -2.14530000      -1.70280000      -1.72230000
H       -1.34710000      -1.69550000      -3.29720000
H       -2.14740000      -3.15800000      -2.72030000
