13
Properties=species:S:1:pos:R:3 gdb_48686=T pbc="F F F"
O       -0.40290000       0.60980000       0.76770000
C        0.22660000       0.95380000      -0.19940000
C        1.33930000       1.94160000      -0.13500000
C        1.92850000       2.42120000       1.17390000
O        2.49550000       3.71500000       0.90020000
C        2.16340000       4.17320000      -0.33660000
O        2.38280000       5.28490000      -0.71190000
C        1.48460000       3.05410000      -1.09910000
O        2.30400000       1.89070000      -1.19080000
H        0.03710000       0.56010000      -1.21950000
H        1.15150000       2.51740000       1.93670000
H        2.72330000       1.76620000       1.53840000
H        0.82850000       3.27180000      -1.93450000
