23
Properties=species:S:1:pos:R:3 gdb_76340=T pbc="F F F"
C       -0.83560000       1.11630000      -0.18300000
C        0.02110000      -0.14200000      -0.15930000
C        1.36060000      -0.15410000      -0.93780000
O        1.94050000       1.14850000      -0.98480000
C        1.98220000      -0.99600000       0.21650000
O        3.29550000      -0.67570000       0.58740000
C        0.78030000      -0.58700000       1.14640000
C        1.13780000       0.56570000       2.08900000
C        0.13590000      -1.73240000       1.92300000
H       -0.25670000       2.00470000       0.07700000
H       -1.25780000       1.27900000      -1.18060000
H       -1.67140000       1.03160000       0.51990000
H       -0.57640000      -0.98970000      -0.51510000
H        1.34560000      -0.59880000      -1.93990000
H        2.68800000       1.11180000      -1.58930000
H        1.96360000      -2.06860000      -0.00100000
H        3.35380000       0.28680000       0.52910000
H        1.56060000       1.42210000       1.55750000
H        0.25060000       0.91560000       2.62770000
H        1.87110000       0.23300000       2.83060000
H        0.80070000      -2.09320000       2.71640000
H       -0.80130000      -1.41550000       2.39630000
H       -0.09320000      -2.58040000       1.26760000
