14
Properties=species:S:1:pos:R:3 gdb_30581=T pbc="F F F"
O        0.20440000       0.90480000       0.90980000
C       -0.06940000       0.09340000      -0.22360000
C       -1.43510000      -0.40660000      -0.15080000
C       -2.56210000      -0.83230000      -0.12080000
C       -3.88030000      -1.32560000      -0.08400000
N       -4.92900000      -0.89620000      -0.72980000
C       -5.95150000      -1.73370000      -0.33050000
C       -5.46510000      -2.64250000       0.55140000
O       -4.13950000      -2.39890000       0.72200000
H        1.10950000       1.22180000       0.82420000
H        0.04580000       0.65770000      -1.16320000
H        0.61830000      -0.76620000      -0.27990000
H       -6.95690000      -1.62170000      -0.70380000
H       -5.88080000      -3.46320000       1.11040000
