23
Properties=species:S:1:pos:R:3 gdb_36516=T pbc="F F F"
C       -0.11280000      -1.24200000       0.02090000
C       -0.08010000      -0.03990000       0.01430000
C       -0.01660000       1.41690000       0.01930000
C        1.42160000       1.98180000      -0.02760000
C        2.15490000       1.59720000      -1.32320000
C        3.57300000       2.18270000      -1.37080000
C        3.55910000       3.70630000      -1.18350000
C        2.82510000       4.10110000       0.10610000
C        1.40960000       3.50870000       0.15200000
H       -0.15340000      -2.30280000       0.02580000
H       -0.58560000       1.81060000      -0.83440000
H       -0.52100000       1.79410000       0.91880000
H        1.97310000       1.54390000       0.81680000
H        2.18370000       0.50730000      -1.42280000
H        1.57840000       1.97480000      -2.18110000
H        4.17970000       1.72550000      -0.57670000
H        4.05570000       1.91960000      -2.31880000
H        4.58210000       4.09920000      -1.17410000
H        3.05490000       4.17080000      -2.04260000
H        3.39560000       3.73730000       0.97200000
H        2.77940000       5.19190000       0.20120000
H        0.80160000       3.95760000      -0.64740000
H        0.92000000       3.77150000       1.09790000
