19
Properties=species:S:1:pos:R:3 gdb_97755=T pbc="F F F"
C        0.50140000       1.66920000      -0.36170000
C       -0.17640000       0.34620000       0.03950000
C        0.41090000      -0.25980000       1.23040000
C        0.91570000      -0.73580000       2.21630000
C        1.49910000      -1.33680000       3.39830000
C        0.51760000      -1.83490000       4.52080000
C        1.28960000      -3.16280000       4.53460000
O        1.31510000      -4.09700000       5.28040000
C        2.07430000      -2.79390000       3.26660000
H        1.56290000       1.51360000      -0.57240000
H        0.02880000       2.08350000      -1.25720000
H        0.42200000       2.40580000       0.44240000
H       -1.24670000       0.52050000       0.20970000
H       -0.11790000      -0.36290000      -0.79640000
H        2.25510000      -0.67310000       3.82890000
H        0.49140000      -1.27340000       5.45740000
H       -0.50550000      -1.96550000       4.15550000
H        1.69140000      -3.31890000       2.38620000
H        3.15890000      -2.91660000       3.30890000
