20
Properties=species:S:1:pos:R:3 gdb_81071=T pbc="F F F"
C        0.02350000       1.64750000      -0.13650000
C        0.08240000       0.14600000       0.07350000
N        1.11480000      -0.66130000      -0.75570000
C        2.14670000      -0.21880000       0.29860000
C        0.92030000      -0.56510000       1.17820000
C        0.80970000      -1.79270000       0.24010000
C        0.77820000      -0.52040000       2.66380000
C        0.24730000       0.65000000       3.37740000
O       -0.56220000      -0.50730000       3.17400000
H        0.94740000       2.17300000       0.11570000
H       -0.20580000       1.85720000      -1.18670000
H       -0.78260000       2.07550000       0.46840000
H       -0.91950000      -0.27500000      -0.06040000
H        3.01420000      -0.88210000       0.35410000
H        2.46420000       0.82080000       0.21420000
H       -0.17520000      -2.24680000       0.10290000
H        1.59810000      -2.54840000       0.29040000
H        1.45230000      -1.18060000       3.21410000
H        0.55340000       0.83400000       4.40640000
H       -0.05110000       1.53400000       2.81700000
