16
Properties=species:S:1:pos:R:3 gdb_128719=T pbc="F F F"
C        0.00950000       1.34920000       0.04160000
O       -0.21500000      -0.04310000      -0.19880000
C        0.53490000      -0.59430000      -1.15480000
N        1.42680000       0.07890000      -1.84690000
O        1.97260000      -0.86520000      -2.73080000
C        1.38880000      -2.05760000      -2.52000000
C        1.84460000      -3.20180000      -3.37340000
O        0.90380000      -4.25540000      -3.39590000
C        0.45890000      -1.96620000      -1.53640000
H        1.04480000       1.52650000       0.34830000
H       -0.19560000       1.93520000      -0.85940000
H       -0.67740000       1.62710000       0.84120000
H        2.08690000      -2.82380000      -4.37800000
H        2.76730000      -3.62940000      -2.96440000
H        0.08920000      -3.91430000      -3.78040000
H       -0.16860000      -2.73880000      -1.12860000
