14
Properties=species:S:1:pos:R:3 gdb_19031=T pbc="F F F"
N       -0.07340000       1.29080000      -0.21160000
C       -0.00930000       0.04910000       0.00320000
O        1.14520000      -0.67500000       0.19680000
C        0.75660000      -2.00100000       0.57930000
C       -0.02050000      -1.92770000       1.90960000
N       -1.33040000      -1.85720000       1.17580000
C       -0.61930000      -2.26960000      -0.07930000
C       -1.15970000      -0.89970000       0.02300000
H        0.86100000       1.70390000      -0.21950000
H        1.60450000      -2.67000000       0.45350000
H       -0.00190000      -2.86290000       2.47370000
H        0.20710000      -1.08140000       2.56490000
H       -0.94730000      -3.06510000      -0.73630000
H       -2.09570000      -0.59470000      -0.42320000
