17
Properties=species:S:1:pos:R:3 gdb_16157=T pbc="F F F"
O        0.08550000       1.29700000      -0.47200000
C        0.05140000       0.03030000       0.16810000
C       -1.35520000      -0.50610000       0.24380000
C       -2.36480000       0.10910000       1.21780000
C       -3.32550000      -1.02650000       1.50210000
C       -2.94650000      -2.16050000       0.90490000
C       -1.72570000      -1.94600000       0.07130000
N       -1.87070000      -0.98460000      -1.05270000
H       -0.29390000       1.15840000      -1.34800000
H        0.69050000      -0.69800000      -0.35240000
H        0.46080000       0.18350000       1.17250000
H       -1.86420000       0.44940000       2.13430000
H       -2.86210000       0.99280000       0.79910000
H       -4.21840000      -0.89940000       2.10380000
H       -3.45660000      -3.11450000       0.96740000
H       -1.00690000      -2.74220000      -0.09430000
H       -2.85610000      -0.74810000      -1.15680000
