19
Properties=species:S:1:pos:R:3 gdb_110328=T pbc="F F F"
O        0.35180000       0.60290000       0.92440000
C       -0.03660000       0.22910000      -0.39660000
C       -1.38860000      -0.45160000      -0.41320000
C       -1.89530000      -1.46440000      -1.42860000
C       -0.82350000      -2.45970000      -1.85240000
O        0.22200000      -1.90530000      -2.62600000
C       -0.55620000      -2.82550000      -0.34790000
C       -1.67690000      -1.85210000       0.03710000
O       -2.66260000      -2.14980000       0.96220000
H       -0.26040000       1.28010000       1.22890000
H       -0.05210000       1.10120000      -1.06800000
H        0.74250000      -0.43630000      -0.76720000
H       -2.20570000       0.20990000      -0.12050000
H       -2.81960000      -1.29010000      -1.96580000
H       -1.27800000      -3.31160000      -2.37500000
H        0.84450000      -2.60870000      -2.83710000
H       -0.81740000      -3.86150000      -0.12100000
H        0.44300000      -2.60710000       0.04030000
H       -2.35870000      -1.84900000       1.82590000
