8
Properties=species:S:1:pos:R:3 gdb_21779=T pbc="F F F"
O        0.09100000       0.00660000       0.00270000
C       -0.00150000       1.18140000       0.00960000
O       -1.14910000       1.92990000       0.02940000
N       -0.82680000       3.29150000       0.03120000
C        0.45960000       3.30680000       0.01290000
O        1.04910000       2.09140000      -0.00120000
C        1.25890000       4.48010000       0.00700000
N        1.92080000       5.42700000       0.00200000
