16
Properties=species:S:1:pos:R:3 gdb_29997=T pbc="F F F"
C       -0.08970000       1.59000000       0.02360000
C        0.00610000       0.05430000       0.04160000
C        0.82500000      -0.52840000      -1.12010000
C        1.85580000      -1.28800000      -0.69410000
C        1.82370000      -1.28830000       0.76900000
C        0.77950000      -0.53030000       1.17550000
O        0.74340000      -0.52070000       2.53140000
C        1.81700000      -1.30870000       2.86840000
N        2.49420000      -1.79280000       1.87290000
H        0.90720000       2.03860000       0.04110000
H       -0.60540000       1.93130000      -0.87880000
H       -0.64710000       1.95280000       0.89200000
H       -1.01080000      -0.36300000       0.00300000
H        0.56770000      -0.31850000      -2.15020000
H        2.57470000      -1.80460000      -1.31520000
H        1.98730000      -1.44550000       3.92440000
