23
Properties=species:S:1:pos:R:3 gdb_78479=T pbc="F F F"
C       -0.02310000       1.48860000       0.01490000
C        0.06030000      -0.02390000       0.03470000
C        1.41000000      -0.64120000      -0.20940000
C        0.78200000      -0.65750000       1.19230000
C        0.70600000      -2.19790000       1.15780000
C       -0.63650000      -2.94630000       1.03590000
C       -0.47150000      -3.79570000      -0.24740000
C        0.36870000      -2.92020000      -1.20810000
C        1.34700000      -2.18120000      -0.27290000
H        0.88650000       1.93850000       0.42770000
H       -0.14610000       1.86670000      -1.00590000
H       -0.87000000       1.84790000       0.60980000
H       -0.82440000      -0.51440000      -0.36740000
H        2.23580000      -0.03980000      -0.57330000
H        1.05490000      -0.07050000       2.06240000
H        1.35930000      -2.65000000       1.90760000
H       -0.86680000      -3.55990000       1.91170000
H       -1.46520000      -2.23990000       0.91560000
H        0.08490000      -4.71100000      -0.00880000
H       -1.42760000      -4.10860000      -0.67930000
H        0.87420000      -3.51460000      -1.97470000
H       -0.27890000      -2.20900000      -1.73260000
H        2.34530000      -2.62440000      -0.29340000
