19
Properties=species:S:1:pos:R:3 gdb_57105=T pbc="F F F"
N       -0.17500000       1.47590000       0.14680000
C       -0.04000000       0.02480000      -0.01610000
C       -1.37630000      -0.58870000       0.08970000
N       -2.41600000      -1.08990000       0.14390000
C        0.68400000      -0.44890000      -1.30160000
C        0.80470000      -1.99200000      -1.45480000
C        0.13030000      -2.27030000      -2.81330000
O        0.23860000      -1.05690000      -3.54530000
C       -0.01340000      -0.02030000      -2.61770000
H        0.74600000       1.90270000       0.11090000
H       -0.71550000       1.86810000      -0.61870000
H        0.53340000      -0.34080000       0.84540000
H        1.68360000      -0.00460000      -1.26030000
H        1.85450000      -2.29310000      -1.46930000
H        0.31310000      -2.53270000      -0.64140000
H        0.61520000      -3.05760000      -3.39480000
H       -0.92720000      -2.53950000      -2.66990000
H       -1.09860000       0.09860000      -2.45380000
H        0.37630000       0.90910000      -3.04010000
