17
Properties=species:S:1:pos:R:3 gdb_52174=T pbc="F F F"
N       -0.52390000       1.01530000       0.61070000
C       -0.39540000      -0.23320000       0.48850000
O       -0.84620000      -0.85050000      -0.62480000
C       -0.90090000      -2.27370000      -0.61090000
C       -2.31410000      -2.74770000      -0.30980000
C       -2.48140000      -4.25860000       0.02800000
C       -3.01630000      -3.77260000       1.39990000
O       -3.47990000      -4.28580000       2.37930000
N       -2.77160000      -2.45890000       1.05640000
H       -0.10010000       1.32440000       1.48300000
H        0.07720000      -0.91880000       1.20520000
H       -0.59180000      -2.61260000      -1.60480000
H       -0.20140000      -2.67980000       0.13200000
H       -3.00080000      -2.38300000      -1.08080000
H       -3.21820000      -4.79590000      -0.57030000
H       -1.55660000      -4.83780000       0.07860000
H       -3.09980000      -1.59900000       1.47240000
