22
Properties=species:S:1:pos:R:3 gdb_87563=T pbc="F F F"
C        0.06790000       1.91930000       0.73950000
C        0.01390000       0.42880000       0.48690000
C        1.25460000      -0.32930000       0.06360000
C        0.67270000      -0.54250000       1.42820000
C        1.33770000      -0.26290000       2.75500000
C        0.33860000      -0.28370000       3.84160000
N        0.84750000      -1.57690000       3.34370000
C        0.16170000      -1.86820000       2.02120000
C       -1.32110000      -2.19150000       2.07040000
H        1.01560000       2.20640000       1.20680000
H       -0.02570000       2.48400000      -0.19460000
H       -0.73870000       2.24250000       1.40710000
H       -0.91480000       0.07940000       0.04020000
H        1.15710000      -1.12520000      -0.66910000
H        2.18550000       0.22680000      -0.00720000
H        2.36140000       0.07060000       2.89560000
H        0.67840000      -0.07220000       4.85120000
H       -0.68490000       0.01910000       3.63770000
H        0.70070000      -2.71420000       1.58150000
H       -1.91780000      -1.36760000       2.47200000
H       -1.69650000      -2.41230000       1.06510000
H       -1.49330000      -3.07490000       2.69390000
