20
Properties=species:S:1:pos:R:3 gdb_62036=T pbc="F F F"
C       -0.01570000       1.57760000      -0.12080000
C       -0.05080000       0.04780000       0.06960000
C        0.80620000      -0.45050000       1.25780000
C        2.31350000      -0.23980000       1.06060000
C        3.10730000      -0.80440000       2.21450000
C        4.33320000      -0.17030000       2.71250000
O        3.10020000      -0.03800000       3.42230000
C       -1.43710000      -0.40430000       0.23550000
N       -2.52860000      -0.75800000       0.37550000
H        1.00050000       1.91220000      -0.34210000
H       -0.66140000       1.88100000      -0.94830000
H       -0.35860000       2.08640000       0.78460000
H        0.32470000      -0.42630000      -0.84770000
H        0.48330000       0.05710000       2.17330000
H        0.60840000      -1.51820000       1.40580000
H        2.64020000      -0.72730000       0.13170000
H        2.54720000       0.82580000       0.96770000
H        2.99190000      -1.87830000       2.37740000
H        5.09530000      -0.77270000       3.20480000
H        4.69780000       0.73920000       2.23610000
