19
Properties=species:S:1:pos:R:3 gdb_126468=T pbc="F F F"
C        0.11450000       1.53350000       0.11300000
C       -0.09190000       0.02430000      -0.09770000
C        0.69200000      -0.51880000      -1.25500000
N        0.06080000      -0.85590000      -2.35590000
O        1.07230000      -1.30420000      -3.23610000
C        2.25120000      -1.22020000      -2.60910000
N        3.34710000      -1.68770000      -3.30330000
C        2.10210000      -0.72880000      -1.34080000
C        3.16010000      -0.50730000      -0.30550000
H        1.16370000       1.77190000       0.31370000
H       -0.19240000       2.09250000      -0.77580000
H       -0.47820000       1.88840000       0.96150000
H        0.19170000      -0.51560000       0.81440000
H       -1.15010000      -0.18560000      -0.27790000
H        3.18640000      -1.77050000      -4.29770000
H        4.20820000      -1.20260000      -3.09800000
H        3.54670000       0.52020000      -0.29960000
H        2.77830000      -0.71010000       0.70040000
H        4.01260000      -1.17700000      -0.46350000
