19
Properties=species:S:1:pos:R:3 gdb_91523=T pbc="F F F"
C       -0.06430000       1.58490000       0.19180000
N        0.06840000       0.13710000       0.11610000
C        1.02120000      -0.44020000      -0.88020000
C        1.72030000      -1.22910000       0.22950000
C        2.23690000      -0.29540000       1.28170000
C        0.75380000      -0.55580000       1.21260000
C        0.00740000      -1.20240000       2.33280000
N       -1.34610000      -1.07300000       2.21650000
O        0.56630000      -1.77960000       3.24840000
H        0.89500000       2.11780000       0.29880000
H       -0.55720000       1.95230000      -0.71410000
H       -0.69380000       1.84240000       1.04930000
H        0.50750000      -1.05020000      -1.62930000
H        1.64880000       0.30170000      -1.39200000
H        1.97950000      -2.27850000       0.19570000
H        2.71230000      -0.77210000       2.13140000
H        2.63350000       0.67860000       1.00800000
H       -1.71610000      -0.77840000       1.32580000
H       -1.92490000      -1.60390000       2.84660000
