14
Properties=species:S:1:pos:R:3 gdb_21282=T pbc="F F F"
C       -0.00840000       1.36350000      -0.00950000
O       -0.03820000      -0.06910000       0.01230000
C       -1.25420000      -0.60320000       0.03210000
N       -2.38490000       0.01950000       0.04510000
N       -3.32520000      -1.02800000       0.14370000
C       -2.73530000      -2.28520000       0.02730000
N       -3.19550000      -3.47180000      -0.05180000
N       -1.37600000      -1.96720000       0.05630000
H        1.04660000       1.63580000      -0.00990000
H       -0.50380000       1.74260000      -0.90770000
H       -0.51220000       1.76840000       0.87230000
H       -4.23430000      -0.83480000      -0.24230000
H       -4.21250000      -3.47310000      -0.04590000
H       -0.63650000      -2.64480000      -0.00020000
