21
Properties=species:S:1:pos:R:3 gdb_81353=T pbc="F F F"
C       -0.16580000       1.57230000      -0.07060000
C        0.07200000       0.06260000      -0.03070000
C        1.02370000      -0.48090000      -1.11360000
O        1.24520000      -1.86700000      -0.67110000
C        1.97350000      -1.22140000       0.43300000
C        2.45420000      -0.16880000      -0.60060000
O        3.49000000      -0.59520000      -1.44080000
C        0.83970000      -0.53590000       1.21930000
C        1.29680000       0.43210000       2.31080000
H        0.76120000       2.14940000      -0.00310000
H       -0.66050000       1.85450000      -1.00630000
H       -0.81430000       1.89260000       0.75060000
H       -0.89170000      -0.44470000      -0.13760000
H        0.74660000      -0.38790000      -2.16500000
H        2.66450000      -1.88310000       0.95790000
H        2.70030000       0.84080000      -0.26830000
H        3.25020000      -1.48870000      -1.72140000
H        0.22460000      -1.31490000       1.68000000
H        1.94790000       1.22420000       1.92950000
H        0.44210000       0.91290000       2.79650000
H        1.85330000      -0.10510000       3.08650000
