14
Properties=species:S:1:pos:R:3 gdb_5206=T pbc="F F F"
C       -0.10190000       1.44760000      -0.00160000
C       -0.01450000      -0.00310000      -0.00740000
C        0.05560000      -1.20820000      -0.01270000
C        0.15080000      -2.60980000      -0.01600000
C        1.19730000      -3.46950000       0.18890000
C        0.67420000      -4.79020000       0.05740000
C       -0.64990000      -4.64290000      -0.21740000
O       -0.98970000      -3.33300000      -0.26690000
H        0.57550000       1.89230000      -0.73950000
H       -1.11830000       1.77670000      -0.24360000
H        0.15610000       1.86100000       0.98010000
H        2.21310000      -3.18120000       0.40650000
H        1.21080000      -5.72070000       0.15440000
H       -1.45240000      -5.33940000      -0.39710000
