19
Properties=species:S:1:pos:R:3 gdb_90876=T pbc="F F F"
O        0.29190000       1.33340000       0.38370000
C        0.07420000      -0.03390000       0.07750000
C       -1.42920000      -0.40360000       0.10080000
C       -2.17420000      -0.22180000      -1.21260000
C       -1.96760000       0.88050000      -2.22040000
O       -0.64170000       1.42090000      -2.19160000
C       -0.08780000       0.07150000      -2.43770000
C        0.75170000      -0.40580000      -1.26020000
C       -1.50210000      -0.51570000      -2.53600000
H       -0.01340000       1.82300000      -0.39460000
H        0.56360000      -0.58560000       0.88720000
H       -1.52740000      -1.46020000       0.38400000
H       -1.89550000       0.18330000       0.89910000
H       -3.21260000      -0.54760000      -1.18970000
H       -2.74870000       1.50800000      -2.63340000
H        0.45840000       0.07640000      -3.38470000
H        1.74500000       0.05390000      -1.27400000
H        0.88660000      -1.49140000      -1.35000000
H       -1.84060000      -1.23770000      -3.26630000
