20
Properties=species:S:1:pos:R:3 gdb_114634=T pbc="F F F"
C       -0.07670000       1.12630000       0.60210000
O       -0.22560000       0.18290000      -0.44150000
C       -1.38780000      -0.57900000      -0.33760000
C       -1.61690000      -1.57600000      -1.51420000
C       -1.74030000      -2.69580000      -0.47710000
N       -0.42990000      -2.75350000       0.20880000
C       -1.45530000      -1.76690000       0.65740000
C       -1.94180000      -1.76720000       2.07110000
O       -0.99420000      -1.22540000       2.98700000
H        0.87910000       1.63160000       0.44540000
H       -0.88310000       1.87720000       0.58010000
H       -0.08180000       0.64610000       1.58950000
H       -2.26940000       0.06550000      -0.18500000
H       -2.52550000      -1.37130000      -2.08280000
H       -0.76270000      -1.67910000      -2.18550000
H       -2.39200000      -3.56080000      -0.50110000
H       -0.47740000      -3.53870000       0.86120000
H       -2.83520000      -1.14110000       2.17010000
H       -2.22670000      -2.79350000       2.35900000
H       -0.15340000      -1.66820000       2.82680000
