20
Properties=species:S:1:pos:R:3 gdb_86371=T pbc="F F F"
C       -0.01500000       1.50570000       0.08610000
N       -0.01310000       0.05840000       0.13940000
C       -1.28630000      -0.62200000       0.45590000
C       -0.47950000      -1.70070000       1.21570000
O       -0.18550000      -2.86040000       0.47650000
C        0.65520000      -0.62770000       1.26970000
C        2.10140000      -1.09710000       1.07400000
C        3.06080000       0.05790000       0.90230000
O        3.80510000       0.46110000       1.76020000
H        0.99600000       1.88330000      -0.09700000
H       -0.65050000       1.84160000      -0.74000000
H       -0.38970000       1.96920000       1.01780000
H       -1.93740000      -0.03940000       1.12830000
H       -1.87070000      -0.95350000      -0.40990000
H       -0.86950000      -2.03750000       2.17630000
H        0.03620000      -2.58740000      -0.42120000
H        0.58280000      -0.04660000       2.20530000
H        2.40720000      -1.67460000       1.95180000
H        2.14970000      -1.74030000       0.18880000
H        3.03170000       0.54390000      -0.09960000
