19
Properties=species:S:1:pos:R:3 gdb_43667=T pbc="F F F"
O        0.34370000       0.26880000      -0.47760000
C        0.12990000       1.38060000      -0.09180000
C       -1.11210000       2.09720000       0.46010000
C       -0.16680000       3.20060000       0.99730000
C        1.01400000       2.61390000       0.15300000
O       -0.62080000       4.49550000       0.69460000
C        0.12340000       5.51470000       1.29340000
C        1.31600000       6.10400000       0.58180000
C        0.01000000       6.86960000       0.67900000
H       -1.73640000       2.48960000      -0.35040000
H       -1.74080000       1.54920000       1.16450000
H        0.02100000       3.09960000       2.07460000
H        1.98260000       2.44690000       0.62900000
H        1.15780000       3.18060000      -0.77290000
H        0.16780000       5.44330000       2.38090000
H        2.16330000       6.43260000       1.17360000
H        1.57110000       5.69270000      -0.38770000
H       -0.58710000       6.93920000      -0.22300000
H       -0.05010000       7.73190000       1.33290000
