20
Properties=species:S:1:pos:R:3 gdb_63723=T pbc="F F F"
C       -0.19210000       1.57860000       0.06590000
C        0.05220000       0.07770000      -0.02100000
C       -1.25810000      -0.68330000      -0.18190000
C        1.16120000      -0.42530000      -0.99660000
C        1.84990000      -1.02790000       0.21740000
C        2.12240000       0.00550000       1.25010000
N        0.76620000      -0.52290000       1.19670000
C        2.34590000      -2.41080000       0.33210000
O        2.52370000      -3.14680000      -0.60870000
H        0.73250000       2.15500000       0.15570000
H       -0.70630000       1.92520000      -0.83670000
H       -0.82570000       1.81310000       0.92770000
H       -1.75330000      -0.40340000      -1.11750000
H       -1.08110000      -1.76250000      -0.19340000
H       -1.93360000      -0.46170000       0.65040000
H        0.81110000      -1.17770000      -1.70410000
H        1.73320000       0.33370000      -1.53690000
H        2.65660000      -0.30310000       2.14460000
H        2.34520000       1.01650000       0.91950000
H        2.53520000      -2.73720000       1.37970000
