21
Properties=species:S:1:pos:R:3 gdb_40728=T pbc="F F F"
C       -0.11910000       1.09520000      -0.42650000
C        1.27460000       0.78240000       0.05770000
C        0.19130000      -0.25540000       0.17370000
C       -0.37150000      -0.60960000       1.52920000
C       -1.77290000      -1.28970000       1.47730000
C       -1.55280000      -2.68640000       2.03500000
C       -0.55100000      -3.57800000       1.31950000
C       -0.12620000      -2.72630000       2.48850000
O        0.51290000      -1.51010000       2.22390000
H       -0.71600000       1.78710000       0.15930000
H       -0.29720000       1.15440000      -1.49430000
H        2.05510000       0.62940000      -0.67900000
H        1.61440000       1.25900000       0.97120000
H        0.24520000      -1.08900000      -0.52170000
H       -0.41600000       0.31200000       2.12670000
H       -2.48780000      -0.74700000       2.10270000
H       -2.16880000      -1.29070000       0.45680000
H       -2.34850000      -3.14920000       2.60670000
H       -0.63820000      -4.64800000       1.47880000
H       -0.21010000      -3.29590000       0.32880000
H        0.20320000      -3.17830000       3.41770000
