19
Properties=species:S:1:pos:R:3 gdb_87849=T pbc="F F F"
C       -0.00650000       1.51090000      -0.12180000
C       -0.02200000       0.01770000       0.07330000
O        1.24790000      -0.66390000      -0.01430000
C        0.56660000      -0.64350000       1.23640000
C        1.20620000       0.00210000       2.48160000
C        0.93980000      -1.18480000       3.43430000
C        1.35970000      -2.43050000       2.62070000
C        0.10470000      -1.96610000       1.85080000
O       -0.45830000      -1.50290000       3.12020000
H        0.81590000       1.97120000       0.43100000
H        0.11170000       1.75850000      -1.18170000
H       -0.94940000       1.94940000       0.22280000
H       -0.82800000      -0.50660000      -0.44470000
H        2.26580000       0.22450000       2.33160000
H        0.68890000       0.90490000       2.81460000
H        1.14320000      -1.06410000       4.49760000
H        2.32410000      -2.43740000       2.10750000
H        1.18100000      -3.35580000       3.16870000
H       -0.54070000      -2.62300000       1.26930000
