18
Properties=species:S:1:pos:R:3 gdb_53033=T pbc="F F F"
C       -0.02670000       1.44080000      -0.02010000
C        0.00470000      -0.01350000      -0.01990000
C        0.01820000      -1.21850000      -0.01790000
C        0.08390000      -2.63840000      -0.00660000
C        1.26150000      -3.52150000       0.43070000
C        0.47020000      -4.70290000      -0.18410000
C       -0.78040000      -4.75220000       0.70830000
N       -1.21470000      -3.42430000       0.15960000
C       -0.34570000      -3.64640000      -1.02330000
H        0.65250000       1.85220000       0.73500000
H        0.27130000       1.84950000      -0.99220000
H       -1.03280000       1.81320000       0.20260000
H        2.15090000      -3.27050000      -0.15160000
H        1.51230000      -3.57380000       1.49550000
H        0.97980000      -5.59420000      -0.54390000
H       -1.51400000      -5.49980000       0.39560000
H       -0.64380000      -4.79290000       1.79520000
H       -0.66720000      -3.55070000      -2.05220000
