18
Properties=species:S:1:pos:R:3 gdb_86234=T pbc="F F F"
C        0.01550000       1.54840000      -0.03690000
C        0.10580000       0.04230000      -0.04470000
O        0.83610000      -0.41700000      -1.15420000
C        1.25160000      -1.73020000      -0.81830000
C        2.46270000      -2.13110000      -1.63550000
C        1.50640000      -1.60120000       0.72280000
O        0.83320000      -0.41380000       1.10050000
C        1.01400000      -2.76920000       1.46920000
N        0.63880000      -3.70210000       2.03830000
H        1.01940000       1.97830000      -0.05690000
H       -0.54280000       1.89110000      -0.91160000
H       -0.50220000       1.88300000       0.86490000
H       -0.89500000      -0.42560000      -0.03560000
H        0.42440000      -2.43730000      -0.98060000
H        3.28340000      -1.42570000      -1.47610000
H        2.79610000      -3.13400000      -1.35270000
H        2.21400000      -2.14030000      -2.69950000
H        2.57600000      -1.48240000       0.93450000
