19
Properties=species:S:1:pos:R:3 gdb_127124=T pbc="F F F"
C        0.03230000       1.40790000      -0.00040000
N       -0.20650000      -0.02340000      -0.03220000
C        0.10120000      -0.75860000       1.17890000
C       -0.05420000      -0.68240000      -1.22810000
N        0.14860000      -1.99690000      -1.30510000
N        0.15770000      -2.18570000      -2.65990000
C       -0.01010000      -1.02210000      -3.31150000
C       -0.03590000      -0.89260000      -4.79670000
N       -0.14670000      -0.04080000      -2.43510000
H        1.09960000       1.65670000       0.12270000
H       -0.31920000       1.85340000      -0.93030000
H       -0.51760000       1.84620000       0.83870000
H       -0.33860000      -0.23560000       2.03350000
H       -0.32340000      -1.76160000       1.11730000
H        1.18500000      -0.85850000       1.35340000
H        0.29980000      -3.10930000      -3.03190000
H       -0.99770000      -0.49220000      -5.13080000
H        0.74210000      -0.20140000      -5.13360000
H        0.12410000      -1.85820000      -5.28360000
