20
Properties=species:S:1:pos:R:3 gdb_92056=T pbc="F F F"
C       -0.25460000       1.51510000       0.03930000
C        0.05920000       0.02170000       0.03290000
C        0.77640000      -0.41140000      -1.26830000
N        1.17410000      -1.82640000      -1.31530000
C        2.52940000      -2.15790000      -0.87980000
C        1.36140000      -2.56800000      -0.05890000
C        1.10930000      -1.91900000       1.29760000
C        0.91250000      -0.41220000       1.21480000
O        1.38640000       0.35670000       2.01850000
H        0.66630000       2.10470000       0.03070000
H       -0.85180000       1.78910000      -0.83600000
H       -0.81030000       1.79460000       0.93780000
H       -0.87250000      -0.56060000       0.08860000
H        0.10250000      -0.22160000      -2.11150000
H        1.65510000       0.22960000      -1.41790000
H        3.06520000      -2.87760000      -1.49360000
H        3.14860000      -1.35030000      -0.48770000
H        1.03390000      -3.60380000      -0.12440000
H        0.17650000      -2.32460000       1.71380000
H        1.90560000      -2.14340000       2.01290000
