16
Properties=species:S:1:pos:R:3 gdb_46193=T pbc="F F F"
O       -0.12120000      -0.00190000      -0.18770000
C       -0.10680000       1.17940000      -0.00880000
C       -1.15960000       2.26640000       0.27710000
N       -0.03550000       3.20640000       0.51470000
C        0.96860000       2.27380000       0.00980000
C        2.43110000       2.24100000       0.51290000
C        2.82390000       1.39440000      -0.71830000
C        1.93590000       2.56780000      -1.18320000
O        2.68570000       3.47440000      -0.28480000
H       -1.78520000       2.47050000      -0.60320000
H       -1.80840000       2.10120000       1.14330000
H       -0.07780000       4.10390000       0.04940000
H        2.79860000       2.21760000       1.53800000
H        3.87010000       1.48770000      -1.00830000
H        2.42640000       0.38080000      -0.79500000
H        1.70340000       2.92470000      -2.18740000
