17
Properties=species:S:1:pos:R:3 gdb_79486=T pbc="F F F"
C        0.08600000       1.51780000      -0.15450000
N        0.03700000       0.06260000      -0.03720000
C       -1.11650000      -0.49160000       0.72610000
C       -0.29030000      -1.73200000       1.18730000
N       -0.59130000      -1.59600000       2.64570000
C       -0.54180000      -0.18140000       2.16190000
C        0.67810000      -0.50200000       1.19930000
C        2.07790000      -0.44430000       1.47820000
C        3.25640000      -0.37160000       1.70660000
H        1.09930000       1.81790000      -0.43750000
H       -0.59490000       1.83320000      -0.95140000
H       -0.18760000       2.05790000       0.76740000
H       -2.14790000      -0.44860000       0.37260000
H       -0.13690000      -2.67980000       0.67300000
H       -1.56050000      -1.86830000       2.82930000
H       -0.69010000       0.67100000       2.82450000
H        4.29740000      -0.31680000       1.90950000
