21
Properties=species:S:1:pos:R:3 gdb_122460=T pbc="F F F"
C        0.28030000       1.61640000       0.12460000
C       -0.08350000       0.14470000      -0.08860000
C        0.73860000      -0.51770000      -1.19940000
C        0.37100000      -1.98600000      -1.40810000
N        1.15480000      -2.55300000      -2.50910000
C        2.42640000      -3.16300000      -2.17670000
C        1.26690000      -4.01320000      -2.60930000
C        0.63640000      -4.87870000      -1.64120000
N        0.10730000      -5.57910000      -0.88740000
H        1.33340000       1.72770000       0.40560000
H        0.11910000       2.20000000      -0.78840000
H       -0.32490000       2.06510000       0.91810000
H        0.05840000      -0.40820000       0.84920000
H       -1.15150000       0.06240000      -0.32970000
H        0.59700000       0.01980000      -2.14470000
H        1.80800000      -0.44380000      -0.95940000
H        0.50980000      -2.54880000      -0.47040000
H       -0.68690000      -2.07470000      -1.68060000
H        3.24400000      -2.99550000      -2.87180000
H        2.71010000      -3.22760000      -1.12730000
H        1.23770000      -4.40140000      -3.62360000
