15
Properties=species:S:1:pos:R:3 gdb_14359=T pbc="F F F"
C       -0.04110000       1.57710000       0.05500000
C        1.47260000       1.27080000       0.04440000
C        1.16530000       0.05680000       1.03360000
C        0.10720000       0.03540000      -0.09430000
O       -0.89880000      -0.73400000      -0.74300000
C       -0.63460000      -0.37060000      -2.05720000
N        0.43640000       0.25560000      -2.36910000
C        1.20880000       0.22680000      -1.10680000
H       -0.46300000       1.93690000       0.99560000
H       -0.43440000       2.11580000      -0.80650000
H        2.29470000       1.97480000       0.15580000
H        1.89150000      -0.75840000       1.04880000
H        0.83440000       0.33940000       2.03490000
H       -1.41200000      -0.66820000      -2.75210000
H        1.98800000      -0.53900000      -1.18680000
