19
Properties=species:S:1:pos:R:3 gdb_22419=T pbc="F F F"
C       -0.04810000       1.50400000       0.00890000
C        0.00950000       0.00030000       0.01240000
N        0.07890000      -0.71740000       1.06960000
O        0.09490000       0.07280000       2.22830000
C       -0.01330000      -0.74580000      -1.27430000
C        0.97460000      -0.67720000      -2.47300000
N       -0.04330000      -1.72030000      -2.96080000
C        0.03490000      -2.26580000      -1.51960000
C       -1.09550000      -0.75600000      -2.39070000
H        0.83400000       1.92100000       0.50520000
H       -0.10320000       1.89650000      -1.00830000
H       -0.91780000       1.85410000       0.57420000
H        0.14790000      -0.58950000       2.92550000
H        0.99260000       0.23180000      -3.08090000
H        1.98000000      -1.08040000      -2.32460000
H        0.96800000      -2.78960000      -1.29970000
H       -0.83530000      -2.85830000      -1.22790000
H       -2.05240000      -1.23400000      -2.16410000
H       -1.23070000       0.14710000      -2.99240000
