19
Properties=species:S:1:pos:R:3 gdb_7139=T pbc="F F F"
C       -0.10150000       1.21380000      -0.61040000
C       -0.09960000       0.17910000       0.51690000
N       -1.34650000      -0.56400000       0.60410000
C       -1.44490000      -1.89280000       0.30750000
O       -0.49250000      -2.56490000      -0.05380000
C       -2.83790000      -2.48580000       0.49040000
C       -3.06680000      -3.68190000      -0.42460000
O       -4.34820000      -4.21080000      -0.11380000
H        0.84960000       1.75510000      -0.63320000
H       -0.24560000       0.72890000      -1.58010000
H       -0.90130000       1.95060000      -0.47580000
H        0.68140000      -0.56640000       0.35430000
H        0.09940000       0.66830000       1.47870000
H       -2.18330000      -0.06820000       0.86530000
H       -2.93930000      -2.81890000       1.53110000
H       -3.61720000      -1.73370000       0.32420000
H       -3.00840000      -3.36250000      -1.47670000
H       -2.26520000      -4.41260000      -0.26140000
H       -4.47840000      -5.00220000      -0.64380000
