21
Properties=species:S:1:pos:R:3 gdb_116249=T pbc="F F F"
C        0.16180000       1.47550000      -0.01150000
C       -0.07910000       0.05250000       0.48960000
N       -1.33490000      -0.50620000      -0.02590000
C       -2.54550000      -0.01110000       0.64650000
C       -2.75680000      -0.91890000       1.87970000
C       -2.19440000      -2.28820000       1.43080000
C       -1.42910000      -1.96680000       0.09490000
C       -2.14750000      -2.51980000      -1.06750000
N       -2.71880000      -2.96820000      -1.96660000
H        1.13530000       1.83720000       0.33420000
H        0.14350000       1.50100000      -1.10440000
H       -0.59640000       2.17360000       0.35570000
H        0.73330000      -0.58690000       0.12830000
H       -0.02650000       0.03340000       1.59390000
H       -2.44560000       1.04680000       0.89480000
H       -3.39220000      -0.10760000      -0.04340000
H       -2.19600000      -0.53580000       2.73720000
H       -3.80640000      -0.97430000       2.17750000
H       -1.50550000      -2.70930000       2.16570000
H       -2.98190000      -3.02440000       1.26040000
H       -0.42750000      -2.40500000       0.09110000
