22
Properties=species:S:1:pos:R:3 gdb_57428=T pbc="F F F"
C       -0.10220000       1.55100000       0.24660000
C       -0.04110000       0.02250000       0.07300000
C        0.55830000      -0.62090000       1.33900000
C       -1.47670000      -0.50390000      -0.13720000
C        0.77990000      -0.42910000      -1.14270000
C        1.08100000       0.41280000      -2.34460000
C        2.22650000      -0.04070000      -1.44820000
C        2.96710000       0.91130000      -0.67050000
N        3.59270000       1.66220000      -0.04970000
H        0.88560000       1.99900000       0.37580000
H       -0.59330000       2.03290000      -0.60490000
H       -0.69020000       1.79170000       1.13820000
H       -0.06420000      -0.40400000       2.21340000
H        0.62170000      -1.71000000       1.23680000
H        1.56400000      -0.24010000       1.53930000
H       -1.91770000      -0.09650000      -1.05320000
H       -1.49440000      -1.59680000      -0.21100000
H       -2.11820000      -0.21600000       0.70200000
H        0.61100000      -1.48050000      -1.36610000
H        1.02610000      -0.02820000      -3.33340000
H        0.83310000       1.46650000      -2.30630000
H        2.85400000      -0.83990000      -1.82990000
