20
Properties=species:S:1:pos:R:3 gdb_82072=T pbc="F F F"
C       -0.12350000       1.61030000      -0.05120000
C        0.06110000       0.10130000      -0.00660000
C        0.73710000      -0.61270000      -1.19680000
C        2.20830000      -0.27370000      -1.29660000
C        1.74410000      -1.20470000      -0.21790000
N        1.14080000      -0.44100000       0.85780000
C        1.32030000      -0.61530000       2.19500000
C        0.38900000       0.18330000       3.09450000
O        2.18620000      -1.35700000       2.62970000
H        0.81150000       2.11920000      -0.29940000
H       -0.86840000       1.86650000      -0.81190000
H       -0.48010000       1.99850000       0.90750000
H       -0.89340000      -0.38790000       0.22870000
H        0.19730000      -1.10000000      -1.99650000
H        2.71510000      -0.74590000      -2.13240000
H        2.58430000       0.71080000      -1.03530000
H        2.09300000      -2.21500000      -0.05460000
H       -0.65860000       0.08840000       2.79110000
H        0.50640000      -0.18120000       4.11480000
H        0.64820000       1.24670000       3.06680000
