20
Properties=species:S:1:pos:R:3 gdb_112634=T pbc="F F F"
C        0.09950000       1.58330000       0.14350000
C       -0.01950000       0.06230000       0.01010000
C        0.61540000      -0.50440000      -1.27320000
C        0.70120000      -2.04560000      -1.29990000
C        0.03960000      -2.44820000      -2.59770000
N        0.02170000      -3.75620000      -2.96160000
C       -0.44940000      -1.38050000      -3.27700000
C       -0.17700000      -0.14670000      -2.55750000
O       -0.50060000       0.98240000      -2.87710000
H        1.15150000       1.88800000       0.19150000
H       -0.35350000       2.08240000      -0.71450000
H       -0.38960000       1.93230000       1.05880000
H        0.45710000      -0.41980000       0.87400000
H       -1.07690000      -0.23390000       0.04110000
H        1.61780000      -0.07190000      -1.38300000
H        1.73130000      -2.41900000      -1.25690000
H        0.16910000      -2.49810000      -0.45210000
H        0.21860000      -4.46070000      -2.27100000
H       -0.55460000      -4.04780000      -3.73370000
H       -0.98050000      -1.40670000      -4.21980000
