19
Properties=species:S:1:pos:R:3 gdb_31138=T pbc="F F F"
C        0.16030000       1.60360000       0.16160000
C       -0.09040000       0.10440000      -0.08350000
C        0.64850000      -0.44960000      -1.26600000
C        0.12220000      -0.81600000      -2.48640000
O       -1.14970000      -0.83650000      -2.96720000
N        1.11690000      -1.23190000      -3.31130000
C        2.33240000      -1.15760000      -2.63240000
C        2.06610000      -0.67160000      -1.37730000
N        2.99400000      -0.34680000      -0.36210000
H        1.22880000       1.79190000       0.29910000
H       -0.17220000       2.19820000      -0.69520000
H       -0.37170000       1.95600000       1.05210000
H        0.17650000      -0.45340000       0.82600000
H       -1.17030000      -0.06780000      -0.20410000
H       -1.72990000      -0.47320000      -2.29120000
H        0.97540000      -1.55740000      -4.25010000
H        3.25590000      -1.44000000      -3.10880000
H        3.90590000      -0.74800000      -0.54550000
H        2.68600000      -0.67320000       0.54740000
