18
Properties=species:S:1:pos:R:3 gdb_78336=T pbc="F F F"
C       -0.12040000       1.42410000       0.00080000
C        0.04790000      -0.06870000      -0.12010000
C        0.83630000      -0.66830000      -1.20980000
N        1.42970000      -0.56430000       0.20540000
C        1.33090000      -2.01960000       0.28890000
O        1.64490000      -2.74970000       1.17810000
C        0.82530000      -2.17780000      -1.12110000
C       -0.11490000      -3.21630000      -1.67660000
C        1.32280000      -3.20270000      -2.10730000
H        0.74630000       1.94690000      -0.41140000
H       -1.01720000       1.75040000      -0.53640000
H       -0.22450000       1.71420000       1.05030000
H       -0.77830000      -0.65890000       0.27490000
H        1.27650000      -0.08810000      -2.01280000
H       -0.43970000      -3.99470000      -0.99450000
H       -0.86690000      -2.88010000      -2.38230000
H        1.55630000      -2.85450000      -3.10780000
H        1.98730000      -3.96860000      -1.72230000
