19
Properties=species:S:1:pos:R:3 gdb_63044=T pbc="F F F"
C       -0.04480000       1.56970000       0.00680000
C        0.05920000       0.05200000      -0.00050000
O       -1.26050000      -0.44230000      -0.07880000
C        1.00440000      -0.60600000      -1.05100000
C        2.38920000       0.01510000      -0.73910000
C        2.27110000      -0.76880000       0.58040000
C        1.44860000      -1.85160000      -0.14420000
O        0.53030000      -2.00390000       0.95650000
C        0.82940000      -0.58710000       1.19460000
H        0.90120000       2.06210000       0.23930000
H       -0.39810000       1.93470000      -0.96240000
H       -0.77900000       1.86410000       0.76190000
H       -1.19610000      -1.37060000       0.19130000
H        0.61550000      -0.71110000      -2.06190000
H        3.18460000      -0.41580000      -1.35480000
H        2.48950000       1.10110000      -0.73700000
H        3.09500000      -0.98460000       1.25830000
H        1.81190000      -2.77620000      -0.58930000
H        0.62340000      -0.26360000       2.21410000
