14
Properties=species:S:1:pos:R:3 gdb_21654=T pbc="F F F"
N       -0.02890000       1.32790000       0.12540000
C        0.01770000      -0.05100000       0.04950000
N       -1.07020000      -0.81100000       0.07530000
N       -0.52170000      -2.06290000       0.05500000
C        0.81450000      -1.99010000       0.00320000
C        1.69270000      -3.19850000      -0.02230000
O        0.85480000      -4.33030000      -0.20180000
N        1.20480000      -0.72630000      -0.00170000
H        0.76920000       1.77060000      -0.30580000
H       -0.90720000       1.71770000      -0.18480000
H       -1.09530000      -2.88870000       0.04610000
H        2.42630000      -3.09190000      -0.83460000
H        2.25750000      -3.25530000       0.92040000
H        1.38120000      -5.12320000      -0.07090000
