17
Properties=species:S:1:pos:R:3 gdb_31402=T pbc="F F F"
C       -0.06990000       1.55130000       0.11040000
C        0.01870000       0.03440000      -0.03190000
C        0.72620000      -0.45390000      -1.27150000
N        1.19770000       0.41140000      -2.11200000
C        1.84870000      -0.00530000      -3.25280000
N        2.32680000       0.79610000      -4.10590000
O        1.98780000      -1.40680000      -3.48020000
C        1.48920000      -2.27340000      -2.59220000
C        0.85300000      -1.88080000      -1.47720000
H        0.92500000       2.00180000       0.13510000
H       -0.60250000       1.99410000      -0.73440000
H       -0.59610000       1.81360000       1.03260000
H        0.52950000      -0.40980000       0.83480000
H       -0.98400000      -0.41720000      -0.02640000
H        2.76380000       0.28140000      -4.86940000
H        1.66330000      -3.30340000      -2.88580000
H        0.45830000      -2.60030000      -0.77350000
