21
Properties=species:S:1:pos:R:3 gdb_90446=T pbc="F F F"
C        0.08280000       1.51730000       0.13000000
C       -0.02770000       0.00910000       0.05520000
O        0.94080000      -0.60670000      -0.86650000
C        1.22990000      -1.67220000       0.10670000
C        2.64870000      -1.93350000       0.66940000
C        3.67930000      -0.91430000       0.17790000
C        2.39190000      -1.80570000       2.21860000
C        1.22120000      -0.82660000       2.30800000
C        0.56860000      -0.84230000       1.15200000
H        1.08750000       1.81610000       0.43900000
H       -0.13090000       1.96060000      -0.84750000
H       -0.64150000       1.91370000       0.84970000
H       -1.04360000      -0.29070000      -0.24050000
H        0.72500000      -2.59400000      -0.21210000
H        2.99310000      -2.94140000       0.41520000
H        3.38340000       0.10480000       0.44380000
H        4.65780000      -1.11450000       0.62590000
H        3.78370000      -0.95240000      -0.90980000
H        2.16230000      -2.78080000       2.66860000
H        3.27550000      -1.42400000       2.74300000
H        1.06230000      -0.16540000       3.15180000
