20
Properties=species:S:1:pos:R:3 gdb_122862=T pbc="F F F"
C       -0.16960000       1.30870000       0.03710000
O       -0.03780000      -0.09180000       0.05020000
C        0.56130000      -0.59610000      -1.11990000
C        0.62140000      -2.10440000      -1.03750000
O       -0.71390000      -2.60930000      -1.15950000
C       -0.85710000      -3.94410000      -1.10130000
N        0.11580000      -4.73910000      -0.93870000
C       -2.32340000      -4.31760000      -1.26170000
O       -2.56270000      -5.68540000      -1.00910000
H        0.80750000       1.81210000      -0.04280000
H       -0.80010000       1.65290000      -0.79810000
H       -0.64040000       1.60180000       0.97850000
H       -0.00770000      -0.29320000      -2.01480000
H        1.58860000      -0.20830000      -1.23380000
H        1.24390000      -2.51320000      -1.84040000
H        1.04900000      -2.42520000      -0.08290000
H       -0.24150000      -5.69500000      -0.95530000
H       -2.92940000      -3.65550000      -0.62830000
H       -2.62530000      -4.13050000      -2.29790000
H       -2.47520000      -5.83070000      -0.06130000
