17
Properties=species:S:1:pos:R:3 gdb_79728=T pbc="F F F"
O        0.16930000       1.42590000       0.31970000
C        0.01790000       0.05770000       0.05570000
C       -1.41170000      -0.55110000       0.04560000
C       -2.58980000       0.22280000      -0.58680000
C       -2.19650000       1.03180000      -1.78920000
C       -2.34160000      -0.45710000      -1.93930000
C       -1.13200000      -1.22780000      -1.34180000
C        0.21040000      -0.46830000      -1.39360000
O        1.05920000      -0.27830000      -2.21670000
H        1.02100000       1.69780000      -0.04260000
H        0.65340000      -0.56310000       0.71460000
H       -1.68170000      -1.15270000       0.91120000
H       -3.52930000       0.39150000      -0.07560000
H       -3.01090000       1.60220000      -2.22490000
H       -1.23570000       1.53130000      -1.84680000
H       -3.04660000      -0.89950000      -2.63140000
H       -1.12790000      -2.30720000      -1.48690000
