18
Properties=species:S:1:pos:R:3 gdb_37829=T pbc="F F F"
C       -0.07320000       1.61630000       0.09970000
C        1.40960000       1.25190000       0.01020000
N        1.20810000      -0.02180000       0.88990000
C        1.93560000      -0.85350000      -0.16620000
C        1.18480000       0.12640000      -1.06300000
C        0.54890000      -0.09080000      -2.41080000
O       -0.58060000      -0.95070000      -2.10840000
C       -0.97470000      -0.88500000      -0.71310000
C       -0.01400000       0.09940000      -0.09640000
H       -0.42390000       1.96810000       1.07310000
H       -0.48890000       2.20760000      -0.71980000
H        2.29950000       1.86680000       0.15600000
H        3.02540000      -0.76810000      -0.10790000
H        1.63650000      -1.90640000      -0.17320000
H        0.20220000       0.84940000      -2.86340000
H        1.17030000      -0.62130000      -3.13780000
H       -2.01680000      -0.55230000      -0.65080000
H       -0.90160000      -1.88900000      -0.27890000
