13
Properties=species:S:1:pos:R:3 gdb_26570=T pbc="F F F"
N       -0.00310000       1.42660000       0.16680000
C       -0.04180000       0.04190000       0.06110000
C       -1.17430000      -0.69430000       0.03050000
O       -2.41190000      -0.16980000       0.02760000
O       -1.15920000      -2.05300000      -0.01090000
C        0.05920000      -2.65590000      -0.01780000
N        1.18790000      -2.07850000      -0.00890000
C        1.24000000      -0.66520000       0.01020000
O        2.29650000      -0.06210000      -0.02110000
H        0.91480000       1.76840000      -0.09270000
H       -0.75780000       1.91790000      -0.29010000
H       -3.05670000      -0.88750000       0.01030000
H       -0.05720000      -3.73460000      -0.03530000
