20
Properties=species:S:1:pos:R:3 gdb_58000=T pbc="F F F"
C       -0.08960000       1.53600000      -0.19360000
C       -0.06140000       0.00310000      -0.01210000
C        0.71190000      -0.39950000       1.24980000
C       -1.50010000      -0.49530000       0.05050000
O       -2.16340000      -0.44310000       1.06380000
C       -2.08950000      -1.04610000      -1.23890000
N       -3.47870000      -1.36700000      -1.05140000
C       -4.27710000      -1.76510000      -2.07040000
O       -3.90700000      -1.90810000      -3.21800000
H        0.93030000       1.92300000      -0.27250000
H       -0.63170000       1.83120000      -1.09760000
H       -0.57370000       2.01080000       0.66500000
H        0.41570000      -0.43800000      -0.89620000
H        0.20380000      -0.02040000       2.13990000
H        0.78700000      -1.48710000       1.34320000
H        1.72570000       0.01030000       1.22270000
H       -1.95150000      -0.31860000      -2.05050000
H       -1.50260000      -1.92800000      -1.53780000
H       -3.83340000      -1.24100000      -0.11340000
H       -5.31760000      -1.94860000      -1.73760000
