17
Properties=species:S:1:pos:R:3 gdb_128513=T pbc="F F F"
C       -0.59100000       0.95410000      -0.05940000
O        0.64550000       0.24640000       0.08820000
C        0.97890000      -0.53530000      -0.96720000
C        0.73940000      -1.87160000      -1.19760000
N       -0.01100000      -2.79340000      -0.43630000
C        1.37220000      -2.12090000      -2.44320000
N        1.45160000      -3.37260000      -3.06540000
N        1.95720000      -1.03750000      -2.94170000
N        1.67900000      -0.05870000      -2.03880000
H       -0.54930000       1.64780000      -0.90750000
H       -1.42580000       0.25950000      -0.20830000
H       -0.73940000       1.51620000       0.86470000
H       -0.18490000      -2.43010000       0.49460000
H        0.49550000      -3.66830000      -0.33720000
H        0.54160000      -3.81260000      -3.14930000
H        1.87360000      -3.28920000      -3.98300000
H        2.17240000       0.81550000      -2.08790000
