15
Properties=species:S:1:pos:R:3 gdb_108750=T pbc="F F F"
O        0.00710000       1.38810000       0.00700000
C       -0.01180000      -0.02520000       0.00260000
C       -1.42770000      -0.48530000       0.01230000
C       -2.55610000       0.23580000       0.02310000
C       -3.72560000      -0.68930000       0.02960000
O       -4.90640000      -0.43970000       0.03940000
N       -3.16850000      -1.97640000       0.02150000
C       -1.77890000      -1.93300000       0.01090000
N       -0.91640000      -2.86980000       0.00150000
H        0.92420000       1.67570000       0.00050000
H        0.49060000      -0.44720000      -0.88260000
H        0.50460000      -0.45300000       0.87690000
H       -2.65690000       1.30980000       0.02700000
H       -3.72890000      -2.81260000       0.02340000
H       -1.35290000      -3.79330000       0.00220000
