14
Properties=species:S:1:pos:R:3 gdb_132949=T pbc="F F F"
N        0.05580000       1.36460000      -0.02540000
C       -0.00940000      -0.01390000       0.02860000
C       -1.15570000      -0.73230000       0.07560000
O       -1.19740000      -2.09350000       0.18760000
C       -0.03490000      -2.76260000       0.25790000
C        1.15480000      -2.13680000       0.21070000
F        2.28430000      -2.85290000       0.27250000
C        1.28750000      -0.70300000       0.07770000
N        2.37700000      -0.02130000      -0.00950000
H        0.98060000       1.68080000      -0.29330000
H       -0.70320000       1.84330000      -0.48400000
H       -2.15070000      -0.31150000       0.03940000
H       -0.15680000      -3.83310000       0.35070000
H        3.18860000      -0.63800000       0.03070000
