14
Properties=species:S:1:pos:R:3 gdb_6664=T pbc="F F F"
N       -0.17710000       1.30030000       0.10780000
C        0.06840000      -0.03810000       0.03820000
O        1.15630000      -0.56010000       0.02270000
O       -1.11100000      -0.72270000       0.02040000
C       -0.97150000      -2.14410000      -0.00510000
C       -2.39790000      -2.70140000       0.01940000
C       -2.40990000      -4.16090000      -0.01010000
N       -2.40750000      -5.31580000      -0.03430000
H        0.60480000       1.91070000      -0.05410000
H       -1.10270000       1.64520000      -0.07890000
H       -0.43780000      -2.45710000      -0.90680000
H       -0.39600000      -2.48400000       0.86010000
H       -2.91420000      -2.35500000       0.92090000
H       -2.95850000      -2.31990000      -0.84060000
