15
Properties=species:S:1:pos:R:3 gdb_97344=T pbc="F F F"
C       -0.11780000       1.33800000       0.20060000
N        0.07310000      -0.09740000       0.11220000
C        0.54230000      -0.55130000      -0.95430000
O        0.72820000      -1.91980000      -1.04810000
C        1.23990000      -2.41690000      -2.20780000
O        1.54870000      -1.77340000      -3.16700000
C        1.34660000      -3.93140000      -2.06290000
C        1.88800000      -4.58380000      -3.24820000
N        2.31380000      -5.12940000      -4.17140000
H        0.45660000       1.72200000       1.04990000
H        0.17920000       1.88740000      -0.70500000
H       -1.17280000       1.54490000       0.40810000
H        0.83750000      -0.00770000      -1.85360000
H        1.97020000      -4.15450000      -1.19000000
H        0.35210000      -4.32970000      -1.83290000
