14
Properties=species:S:1:pos:R:3 gdb_132960=T pbc="F F F"
C       -0.01560000       1.46630000       0.05000000
N        0.00310000       0.00240000       0.02090000
C       -0.02400000      -0.65830000      -1.24210000
O       -0.06230000      -0.02890000      -2.28260000
C       -0.00120000      -2.11220000      -1.11300000
N        0.03950000      -2.76570000       0.00830000
C        0.06380000      -2.07530000       1.18300000
C        0.04540000      -0.71650000       1.16890000
F        0.06730000       0.00920000       2.27640000
H        0.88320000       1.84970000       0.53800000
H       -0.04980000       1.79230000      -0.98790000
H       -0.89470000       1.82600000       0.58920000
H       -0.02050000      -2.66730000      -2.04670000
H        0.09770000      -2.62130000       2.11580000
