18
Properties=species:S:1:pos:R:3 gdb_40793=T pbc="F F F"
C        0.16650000       1.46080000      -0.01480000
O        1.09300000       0.40130000      -0.26920000
C       -0.26730000       0.06210000       0.01720000
C       -0.48490000      -0.66520000       1.32130000
O       -1.86370000      -0.53590000       1.67290000
C       -2.32750000      -1.71940000       2.31830000
C       -1.39040000      -2.82340000       1.87890000
N       -1.21800000      -2.85740000       0.41290000
C       -0.22450000      -2.16010000       1.25730000
H        0.31670000       1.99760000       0.92110000
H       -0.08090000       2.08190000      -0.87400000
H       -0.83280000      -0.34170000      -0.82060000
H        0.16720000      -0.22110000       2.09120000
H       -2.29250000      -1.61620000       3.41440000
H       -3.36690000      -1.87620000       2.01210000
H       -1.30520000      -3.73440000       2.46120000
H       -0.84310000      -3.76290000       0.14060000
H        0.78880000      -2.53580000       1.33850000
