18
Properties=species:S:1:pos:R:3 gdb_123420=T pbc="F F F"
C       -0.07350000       1.61520000      -0.06950000
C       -0.21710000       0.12400000      -0.27380000
C       -0.05630000      -0.81110000       0.89540000
C       -1.42120000      -0.58340000       0.29880000
N        1.31340000       2.05880000      -0.02190000
C        2.07020000       2.61630000      -0.98890000
N        3.30030000       2.82790000      -0.55620000
C        3.24020000       2.36430000       0.72140000
N        2.06290000       1.88800000       1.09520000
H       -0.55940000       2.16970000      -0.87890000
H       -0.54210000       1.91730000       0.87150000
H        0.14500000      -0.22960000      -1.23520000
H        0.43090000      -1.76320000       0.71960000
H        0.16540000      -0.36900000       1.85990000
H       -2.13340000       0.00640000       0.86710000
H       -1.87280000      -1.37570000      -0.28710000
H        1.68550000       2.85090000      -1.97040000
H        4.08240000       2.38410000       1.39710000
