23
Properties=species:S:1:pos:R:3 gdb_112550=T pbc="F F F"
C        0.52240000       1.34030000       0.19680000
C       -0.00540000      -0.07980000      -0.00280000
C       -1.53240000      -0.09130000      -0.03560000
C        0.67540000      -0.83700000      -1.19360000
C        1.42080000      -1.77080000      -0.19840000
C        2.92280000      -1.56820000      -0.12130000
O        3.38910000      -2.28690000       1.02790000
C        0.61940000      -1.13150000       0.97930000
O        1.36590000      -0.58460000       2.04100000
H        1.61400000       1.37090000       0.23440000
H        0.19010000       1.98440000      -0.62590000
H        0.15580000       1.76680000       1.13550000
H       -1.91470000       0.52400000      -0.85860000
H       -1.92180000      -1.10640000      -0.17130000
H       -1.94770000       0.30390000       0.89870000
H       -0.02840000      -1.36180000      -1.84440000
H        1.32260000      -0.21840000      -1.82370000
H        1.22330000      -2.83780000      -0.33300000
H        3.40270000      -1.94420000      -1.03710000
H        3.16360000      -0.50030000      -0.02880000
H        4.33360000      -2.12950000       1.12280000
H       -0.14870000      -1.82020000       1.36250000
H        2.09810000      -1.19620000       2.20180000
