17
Properties=species:S:1:pos:R:3 gdb_107900=T pbc="F F F"
C        0.21500000       1.48440000       0.07630000
C       -0.09290000       0.00730000      -0.20060000
C        0.70920000      -0.53750000      -1.33760000
O        0.50650000       0.01350000      -2.65240000
C        1.25140000      -1.12380000      -3.16480000
C        1.03570000      -1.89870000      -1.81690000
C        2.17980000      -0.98170000      -1.24320000
C        2.69260000      -0.86470000      -2.64520000
O        3.77500000      -0.83180000      -3.15440000
H        1.25980000       1.62070000       0.37190000
H        0.03780000       2.08840000      -0.81770000
H       -0.41980000       1.86740000       0.87990000
H        0.10710000      -0.60330000       0.68770000
H       -1.15510000      -0.11870000      -0.44070000
H        1.00540000      -1.41940000      -4.18080000
H        0.78380000      -2.91350000      -1.54700000
H        2.71670000      -1.08990000      -0.31110000
