15
Properties=species:S:1:pos:R:3 gdb_133853=T pbc="F F F"
O        0.81850000      -0.55400000       0.00620000
C        2.13630000      -0.25990000      -0.01930000
C        2.86250000       1.00400000       0.56370000
C        3.18310000      -0.41690000       1.01630000
N        4.24500000      -0.75900000       0.03010000
C        5.15130000       0.43060000      -0.01050000
C        4.05750000       1.38410000      -0.49560000
N        3.52410000       0.67670000      -1.71030000
C        3.31620000      -0.42690000      -1.06510000
H        0.34730000       0.09010000      -0.53620000
H        2.35650000       1.71010000       1.21260000
H        3.17060000      -0.83860000       2.01230000
H        5.95030000       0.28890000      -0.74000000
H        5.55930000       0.63230000       0.98060000
H        4.25130000       2.44440000      -0.65060000
