16
Properties=species:S:1:pos:R:3 gdb_66706=T pbc="F F F"
C       -0.01780000       1.50440000       0.05990000
C        0.02540000       0.01640000      -0.00690000
C        0.24760000      -1.00170000      -1.16040000
C        0.80890000      -1.99180000      -0.20710000
C        0.60440000      -1.00860000       0.96780000
C       -0.88420000      -1.02770000       0.63500000
C       -2.03730000      -0.91030000       1.43670000
C       -3.02290000      -0.79690000       2.12020000
N       -0.66260000      -2.01860000      -0.52280000
H        0.95130000       1.94560000      -0.19940000
H       -0.77020000       1.91170000      -0.62460000
H       -0.27690000       1.83180000       1.07210000
H        0.32880000      -0.89770000      -2.23580000
H        1.44440000      -2.85700000      -0.34890000
H        1.09100000      -0.85820000       1.92100000
H       -3.89220000      -0.70350000       2.72250000
