15
Properties=species:S:1:pos:R:3 gdb_70774=T pbc="F F F"
C        0.02720000       1.44910000      -0.10890000
C        0.01320000      -0.04340000      -0.05310000
N        0.59630000      -0.94350000      -1.10880000
C        0.06440000      -1.91550000      -0.10350000
C        0.14020000      -3.34410000      -0.23530000
N        0.18030000      -4.49510000      -0.33870000
C        0.48970000      -0.99810000       1.09320000
O       -0.79860000      -1.04320000       1.75630000
C       -1.15230000      -1.02310000       0.35060000
H        1.04980000       1.81920000      -0.22710000
H       -0.57080000       1.81920000      -0.94810000
H       -0.39060000       1.85700000       0.81660000
H        0.00770000      -0.94660000      -1.94610000
H        1.40400000      -1.01420000       1.68330000
H       -2.20300000      -1.07080000       0.06170000
