25
Properties=species:S:1:pos:R:3 gdb_57525=T pbc="F F F"
C        0.49930000       2.01160000      -0.23040000
C        0.61000000       0.49590000       0.01630000
C        1.59770000       0.21490000       1.15520000
C       -0.77280000      -0.06850000       0.36630000
O        0.93590000      -0.17610000      -1.22310000
C        2.25100000      -0.40800000      -1.65070000
C        2.85990000      -1.70720000      -1.15510000
C        2.49200000      -0.04080000      -3.09050000
C        3.16700000       0.74860000      -1.98900000
H        1.47910000       2.47680000      -0.36210000
H       -0.09960000       2.20070000      -1.12550000
H        0.01400000       2.50330000       0.61930000
H        1.29050000       0.77280000       2.04550000
H        1.61620000      -0.84660000       1.41600000
H        2.61130000       0.53270000       0.89780000
H       -1.47580000       0.12270000      -0.44940000
H       -0.71350000      -1.14990000       0.51680000
H       -1.16440000       0.39220000       1.27840000
H        2.16440000      -2.53290000      -1.33770000
H        3.79150000      -1.92200000      -1.68730000
H        3.08610000      -1.68300000      -0.08620000
H        3.09000000      -0.70700000      -3.70280000
H        1.66920000       0.44000000      -3.60620000
H        2.81560000       1.75780000      -1.82380000
H        4.23200000       0.61380000      -1.82910000
