14
Properties=species:S:1:pos:R:3 gdb_49222=T pbc="F F F"
O       -0.78140000       1.30890000       0.27150000
C        0.32730000       0.90800000       0.01520000
C        1.48780000       1.82570000      -0.13640000
N        2.68030000       1.40420000      -0.33600000
C        3.52750000       2.59970000      -0.40830000
C        2.62220000       3.79720000       0.06690000
N        1.29410000       3.19460000      -0.07670000
C        2.90280000       4.21380000       1.45060000
N        3.11600000       4.54400000       2.53740000
H        0.57950000      -0.16090000      -0.11040000
H        4.42520000       2.48410000       0.20210000
H        3.84310000       2.75660000      -1.44620000
H        2.73520000       4.67120000      -0.58010000
H        0.50590000       3.54720000       0.44790000
