20
Properties=species:S:1:pos:R:3 gdb_120020=T pbc="F F F"
C        0.28780000       0.75070000       0.61580000
O       -0.30720000       0.43630000      -0.63310000
C        0.51920000      -0.29750000      -1.50500000
C        0.54200000      -1.79830000      -1.18590000
C        1.20420000      -2.78710000      -2.21370000
C        1.87270000      -2.22530000      -3.46110000
N        2.12090000      -3.16900000      -1.13040000
C        1.58580000      -2.34340000      -0.17640000
O        1.85460000      -2.15870000       0.98340000
H        0.56610000      -0.14440000       1.18440000
H        1.19000000       1.36750000       0.47900000
H       -0.45090000       1.32920000       1.17590000
H        0.09420000      -0.15920000      -2.50610000
H        1.53970000       0.11690000      -1.51730000
H       -0.47290000      -2.10080000      -0.91170000
H        0.52700000      -3.60390000      -2.49190000
H        2.55900000      -1.40970000      -3.21740000
H        2.44540000      -3.00660000      -3.97210000
H        1.12320000      -1.85310000      -4.16700000
H        2.82330000      -3.89160000      -1.06470000
