17
Properties=species:S:1:pos:R:3 gdb_65873=T pbc="F F F"
C        0.22810000       1.59030000       0.29400000
C       -0.04840000       0.08850000       0.11320000
C        0.64000000      -0.48490000      -1.14290000
O        1.94150000      -0.92690000      -0.72440000
C        1.99080000      -1.10940000       0.62020000
O        2.96450000      -1.50860000       1.18590000
C        0.63810000      -0.73710000       1.22710000
C       -1.54810000      -0.15490000       0.11370000
O       -2.14010000      -0.83590000      -0.68310000
H        1.30470000       1.77830000       0.35000000
H       -0.17310000       2.16980000      -0.54340000
H       -0.22670000       1.96500000       1.21700000
H        0.07790000      -1.33110000      -1.54730000
H        0.77960000       0.26010000      -1.92880000
H        0.77580000      -0.20360000       2.16850000
H        0.10330000      -1.66910000       1.44370000
H       -2.08690000       0.35280000       0.94620000
