20
Properties=species:S:1:pos:R:3 gdb_15771=T pbc="F F F"
C       -0.21620000       1.42260000       0.12470000
C        0.03380000      -0.08210000      -0.03080000
C        0.77710000      -0.40520000      -1.35310000
C        0.03380000      -0.03590000      -2.55150000
C       -0.60180000       0.26660000      -3.52640000
C        0.80710000      -0.64170000       1.14890000
C        0.09240000      -1.02580000       2.41840000
C        0.68580000      -2.09510000       1.53230000
H        0.73180000       1.97070000       0.18460000
H       -0.77920000       1.81790000      -0.72510000
H       -0.77810000       1.62940000       1.04030000
H       -0.93770000      -0.59280000      -0.07170000
H        1.74830000       0.10890000      -1.35190000
H        1.00110000      -1.47870000      -1.38080000
H       -1.15200000       0.53170000      -4.39470000
H        1.79340000      -0.19920000       1.27840000
H        0.57160000      -0.81730000       3.36840000
H       -0.98870000      -0.93020000       2.43690000
H       -0.00050000      -2.71390000       0.96230000
H        1.57090000      -2.61850000       1.87660000
