19
Properties=species:S:1:pos:R:3 gdb_112677=T pbc="F F F"
C       -0.01120000       1.33840000      -0.09030000
N       -0.04520000      -0.10180000      -0.14950000
C       -1.23430000      -0.86320000       0.17630000
C       -0.72990000      -2.32040000       0.07850000
C       -0.99110000      -2.94380000      -1.29340000
O       -0.32930000      -4.19930000      -1.30540000
N        0.69240000      -2.15060000       0.34170000
C        1.10410000      -0.85730000       0.03470000
O        2.24620000      -0.45850000      -0.04800000
H        1.02300000       1.64940000      -0.24850000
H       -0.64400000       1.77780000      -0.86990000
H       -0.35210000       1.71870000       0.88450000
H       -1.59810000      -0.63460000       1.19010000
H       -2.05250000      -0.65910000      -0.52530000
H       -1.19000000      -2.95680000       0.84090000
H       -2.07650000      -3.05770000      -1.44420000
H       -0.60430000      -2.27390000      -2.07610000
H       -0.33920000      -4.54500000      -2.20220000
H        1.31380000      -2.90140000       0.08030000
