22
Properties=species:S:1:pos:R:3 gdb_7823=T pbc="F F F"
C       -0.00470000       1.51500000       0.08970000
C        0.03630000      -0.00320000      -0.00680000
C        0.70770000      -0.51050000      -1.28910000
C        0.82580000      -2.03990000      -1.26760000
C        1.49090000      -2.50180000       0.03540000
C        0.77930000      -1.89240000       1.24980000
C        1.46240000      -2.21520000       2.57080000
O        0.73010000      -0.47330000       1.14420000
H        1.01020000       1.92470000       0.07380000
H       -0.56410000       1.93990000      -0.74940000
H       -0.48360000       1.82590000       1.02210000
H       -0.99750000      -0.39610000       0.02020000
H        0.13600000      -0.17540000      -2.16230000
H        1.70600000      -0.05900000      -1.36000000
H       -0.17760000      -2.48210000      -1.33920000
H        1.38710000      -2.39770000      -2.13740000
H        1.48100000      -3.59520000       0.11230000
H        2.54140000      -2.18310000       0.05270000
H       -0.25660000      -2.28000000       1.27330000
H        2.48770000      -1.83200000       2.57250000
H        0.92400000      -1.75280000       3.40250000
H        1.49560000      -3.29680000       2.73380000
