15
Properties=species:S:1:pos:R:3 gdb_8473=T pbc="F F F"
C        0.01210000       1.52960000       0.10510000
C       -0.00670000       0.03370000       0.08170000
C        1.11060000      -0.87090000      -0.36800000
C        0.56160000      -0.96670000       1.06870000
O        1.32350000      -0.70810000       2.17990000
C       -0.78290000      -1.68910000       0.98650000
O       -1.27370000      -2.68060000       1.44410000
N       -1.27970000      -0.71370000       0.09310000
H        1.00860000       1.89020000       0.37530000
H       -0.24260000       1.94750000      -0.87510000
H       -0.70670000       1.90930000       0.83670000
H        0.93260000      -1.66140000      -1.09160000
H        2.09890000      -0.41970000      -0.40910000
H        1.89090000      -1.46870000       2.34810000
H       -1.77330000      -0.97260000      -0.75560000
