14
Properties=species:S:1:pos:R:3 gdb_128924=T pbc="F F F"
N       -0.02890000      -1.13900000      -0.01770000
C       -0.03500000       0.01590000      -0.03530000
C       -0.01280000       1.47510000      -0.05600000
C        1.42720000       2.01300000       0.06850000
N        1.43950000       3.46320000       0.02340000
N        1.14030000       4.16040000      -1.06730000
C        1.25800000       5.40330000      -0.61840000
N        1.61030000       5.45720000       0.68680000
N        1.71940000       4.21530000       1.08350000
H       -0.45510000       1.83280000      -0.99110000
H       -0.62490000       1.85850000       0.76710000
H        1.87420000       1.72900000       1.02130000
H        2.04780000       1.63500000      -0.74640000
H        1.09360000       6.27330000      -1.23280000
