16
Properties=species:S:1:pos:R:3 gdb_34710=T pbc="F F F"
C       -0.03690000      -1.27300000      -0.10800000
C       -0.00130000      -0.07600000      -0.00050000
C        0.02220000       1.37110000       0.09460000
C       -0.29710000       2.11720000       1.46370000
C        0.26280000       1.25980000       2.56630000
C        1.59630000       1.22580000       2.44640000
C        2.01670000       2.14350000       1.35910000
C        0.88410000       3.02950000       1.02600000
N        1.34210000       2.06990000      -0.02770000
H       -0.06120000      -2.33080000      -0.19890000
H       -0.60430000       1.80480000      -0.69040000
H       -1.30340000       2.51320000       1.58200000
H       -0.34530000       0.62590000       3.19870000
H        2.28390000       0.59750000       2.99720000
H        3.04210000       2.47240000       1.24710000
H        0.90090000       4.10690000       0.89890000
