16
Properties=species:S:1:pos:R:3 gdb_45812=T pbc="F F F"
O       -0.01600000      -0.09730000      -0.28120000
C       -0.02140000       1.11120000      -0.14350000
N       -1.20650000       1.82680000      -0.37940000
C       -1.66240000       3.04820000       0.10850000
N       -1.04430000       4.10880000       0.42200000
C        0.35090000       4.27370000       0.20610000
C        1.36220000       4.11760000       1.31230000
C        1.39550000       3.18920000       0.11050000
N        1.06440000       1.81310000       0.29860000
H       -1.93520000       1.17170000      -0.62620000
H       -2.74960000       3.05290000       0.20480000
H        0.53750000       5.12140000      -0.44980000
H        2.13610000       4.86790000       1.42830000
H        1.00150000       3.67200000       2.23240000
H        2.18390000       3.35480000      -0.62180000
H        1.83280000       1.19200000       0.50770000
