19
Properties=species:S:1:pos:R:3 gdb_69105=T pbc="F F F"
O        0.00800000       1.36770000      -0.18250000
C       -0.00650000      -0.00160000       0.04940000
C       -0.32970000      -0.95140000      -1.06780000
C       -1.31370000      -0.80390000       0.10120000
C       -1.19010000      -1.82440000       1.23240000
C        0.32650000      -1.89250000       1.53650000
C        0.88300000      -0.49820000       1.17490000
C       -2.54040000      -0.10830000      -0.12300000
C       -3.53020000       0.55840000      -0.29390000
H       -0.90800000       1.67070000      -0.24500000
H       -0.63750000      -0.49430000      -2.00080000
H        0.20670000      -1.88900000      -1.17420000
H       -1.74460000      -1.45320000       2.10100000
H       -1.60880000      -2.80150000       0.97110000
H        0.52400000      -2.16070000       2.57720000
H        0.80140000      -2.66220000       0.92010000
H        1.94210000      -0.52520000       0.89910000
H        0.77880000       0.20050000       2.01250000
H       -4.42660000       1.10340000      -0.45870000
