19
Properties=species:S:1:pos:R:3 gdb_82771=T pbc="F F F"
O       -0.09960000       1.43810000      -0.06050000
C       -0.02380000       0.02360000      -0.03010000
C       -1.42290000      -0.58000000      -0.21160000
C       -1.76420000      -0.12100000      -1.65680000
C       -0.62200000      -1.08490000      -2.04850000
C       -1.05210000      -1.97100000      -0.85590000
O        0.06070000      -2.67400000      -0.33660000
C        1.22450000      -1.97290000      -0.81080000
C        0.65680000      -0.63080000      -1.28220000
H        0.78990000       1.78620000       0.05460000
H        0.45230000      -0.31410000       0.90050000
H       -2.12290000      -0.47420000       0.61640000
H       -2.73660000      -0.48810000      -1.99430000
H       -1.65870000       0.94010000      -1.87730000
H       -0.48890000      -1.47650000      -3.05710000
H       -1.89430000      -2.64900000      -0.99380000
H        1.94040000      -1.87570000       0.01350000
H        1.70150000      -2.54080000      -1.62260000
H        1.35920000       0.01720000      -1.80880000
