20
Properties=species:S:1:pos:R:3 gdb_12843=T pbc="F F F"
C       -0.11410000       1.53940000       0.01250000
C       -0.01140000       0.01770000       0.00310000
C       -1.29870000      -0.77170000       0.40410000
C       -0.43530000      -1.68310000       1.31770000
C        0.77560000      -0.71800000       1.15000000
C        2.05210000      -1.31740000       0.53200000
C        1.77280000      -1.22780000      -0.95310000
C        0.67570000      -0.52250000      -1.22900000
H        0.87040000       2.00520000      -0.10620000
H       -0.75070000       1.89640000      -0.80630000
H       -0.55000000       1.89920000       0.95100000
H       -1.99960000      -0.14880000       0.96860000
H       -1.84790000      -1.26020000      -0.40570000
H       -0.80030000      -1.82760000       2.33720000
H       -0.24350000      -2.66670000       0.88030000
H        0.96530000      -0.11070000       2.03790000
H        2.95910000      -0.75720000       0.79940000
H        2.22230000      -2.34960000       0.86610000
H        2.41860000      -1.68610000      -1.69530000
H        0.29770000      -0.32320000      -2.22780000
