16
Properties=species:S:1:pos:R:3 gdb_32186=T pbc="F F F"
C        0.41640000       0.73750000       0.51100000
N       -0.26030000       0.15700000      -0.66210000
C       -1.41780000      -0.57780000      -0.42170000
N       -2.64080000      -0.20660000      -0.67470000
C       -3.44070000      -1.28820000      -0.31490000
C       -2.69610000      -2.31010000       0.17490000
N       -1.37040000      -1.87320000       0.09530000
C       -0.23520000      -2.65600000       0.30270000
O       -0.27150000      -3.77910000       0.73120000
H        1.31030000       1.26580000       0.17140000
H       -0.22130000       1.43520000       1.07100000
H        0.73520000      -0.05600000       1.19080000
H       -0.50110000       0.88860000      -1.32140000
H       -4.51300000      -1.24250000      -0.42620000
H       -2.92660000      -3.28920000       0.55580000
H        0.68540000      -2.12630000       0.01160000
