22
Properties=species:S:1:pos:R:3 gdb_112623=T pbc="F F F"
C       -0.07750000       1.48170000      -0.07200000
C       -0.00610000      -0.02390000       0.17130000
N       -1.30090000      -0.65790000       0.01710000
C       -1.88910000      -0.77490000      -1.33630000
C       -2.47930000      -2.14320000      -0.90410000
O       -3.80300000      -2.05060000      -0.39660000
C       -2.49900000      -3.29780000      -1.88600000
O       -2.87890000      -4.49990000      -1.24480000
C       -1.39740000      -2.12060000       0.20810000
H        0.90480000       1.94250000       0.06870000
H       -0.40450000       1.70230000      -1.09380000
H       -0.78530000       1.95050000       0.61780000
H        0.74430000      -0.47680000      -0.50810000
H        0.34000000      -0.21910000       1.19410000
H       -2.60410000       0.00590000      -1.61370000
H       -1.13340000      -0.87990000      -2.13390000
H       -3.79870000      -1.39370000       0.30860000
H       -3.17980000      -3.04690000      -2.71630000
H       -1.50050000      -3.45550000      -2.30400000
H       -3.67880000      -4.28660000      -0.74890000
H       -0.48730000      -2.66540000      -0.09150000
H       -1.69600000      -2.44530000       1.21060000
