16
Properties=species:S:1:pos:R:3 gdb_80198=T pbc="F F F"
C        0.06550000       1.56170000       0.05460000
C        0.10740000       0.05150000       0.06960000
C        1.31980000      -0.78590000      -0.18450000
N        2.54230000      -0.20050000       0.36280000
C        2.01210000      -0.10460000       1.66000000
O        2.44740000       0.35740000       2.67230000
C        0.70580000      -0.79260000       1.22630000
C       -0.01890000      -1.79260000       1.92240000
C       -0.63200000      -2.63080000       2.53000000
H        1.00120000       2.00540000       0.40360000
H       -0.12470000       1.92570000      -0.96090000
H       -0.73760000       1.92970000       0.69980000
H       -0.80510000      -0.42100000      -0.29040000
H        1.37230000      -1.61940000      -0.87250000
H        3.06550000       0.54710000      -0.07850000
H       -1.16470000      -3.37370000       3.07000000
