18
Properties=species:S:1:pos:R:3 gdb_95869=T pbc="F F F"
O       -0.09400000       1.47770000       0.07380000
C        0.04210000       0.06650000       0.04220000
C        0.74710000      -0.48760000       1.28720000
C        0.68510000      -2.01600000       1.30080000
O       -0.66110000      -2.48600000       1.22220000
C       -1.34780000      -2.04540000       0.06910000
C       -1.37060000      -0.50910000      -0.04210000
C       -0.78540000      -2.66620000      -1.15690000
N       -0.33920000      -3.14960000      -2.10710000
H        0.78760000       1.86430000       0.08720000
H        0.60340000      -0.24540000      -0.85410000
H        1.79500000      -0.16370000       1.31460000
H        0.24990000      -0.08690000       2.17790000
H        1.27450000      -2.43540000       0.47140000
H        1.07970000      -2.42390000       2.23390000
H       -2.37080000      -2.41940000       0.17660000
H       -1.95940000      -0.12130000       0.79550000
H       -1.85840000      -0.20020000      -0.97080000
