17
Properties=species:S:1:pos:R:3 gdb_2071=T pbc="F F F"
O        0.00290000      -0.07410000      -0.00660000
C       -0.01380000       1.13500000      -0.00600000
C       -1.30860000       1.93820000       0.01130000
C       -1.31940000       3.02990000      -1.07860000
C       -0.06540000       3.91020000      -1.00520000
C        1.20990000       3.06470000      -1.11260000
C        1.25850000       1.97350000      -0.02320000
H       -2.14880000       1.24670000      -0.08780000
H       -1.38560000       2.41950000       0.99730000
H       -1.36870000       2.55100000      -2.06520000
H       -2.22550000       3.63740000      -0.98210000
H       -0.08650000       4.66170000      -1.80200000
H       -0.06020000       4.46190000      -0.05480000
H        1.24580000       2.58700000      -2.10040000
H        2.10120000       3.69700000      -1.04020000
H        1.34870000       2.45710000       0.96050000
H        2.11440000       1.30550000      -0.14510000
