22
Properties=species:S:1:pos:R:3 gdb_99757=T pbc="F F F"
C       -0.14930000       1.43750000      -0.28770000
O        0.19240000       0.08820000      -0.04110000
C        0.68470000      -0.60860000      -1.15240000
C        1.21550000      -1.97530000      -0.65760000
C        2.43420000      -1.77600000       0.25320000
C        0.11880000      -2.79010000       0.04310000
C       -0.39820000      -0.79750000      -2.23880000
N        0.09850000      -1.05820000      -3.48500000
O       -1.58870000      -0.72550000      -2.01020000
H        0.71050000       2.00150000      -0.68340000
H       -0.98870000       1.52090000      -0.98710000
H       -0.43980000       1.87010000       0.67250000
H        1.52510000      -0.05000000      -1.60640000
H        1.53950000      -2.52520000      -1.55180000
H        2.82350000      -2.74030000       0.59460000
H        3.24340000      -1.25180000      -0.26750000
H        2.16090000      -1.18620000       1.13220000
H       -0.75090000      -2.93990000      -0.60180000
H        0.50490000      -3.77170000       0.33510000
H       -0.22320000      -2.27250000       0.94280000
H        1.08180000      -1.16540000      -3.66250000
H       -0.55160000      -1.28720000      -4.21920000
