18
Properties=species:S:1:pos:R:3 gdb_131800=T pbc="F F F"
O       -0.00240000       1.46160000       0.19830000
C        0.04360000       0.04800000       0.10380000
C       -1.39130000      -0.45780000       0.03170000
C       -1.46220000      -1.99060000      -0.09520000
C       -2.85990000      -2.50800000      -0.13730000
C       -3.61040000      -3.11610000      -1.09730000
C       -4.86220000      -3.32470000      -0.46090000
N       -4.87260000      -2.88440000       0.77240000
O       -3.59640000      -2.36270000       0.98100000
H        0.89890000       1.79020000       0.26260000
H        0.59870000      -0.27570000      -0.79290000
H        0.55030000      -0.39690000       0.97630000
H       -1.92870000      -0.13520000       0.92890000
H       -1.88980000       0.01080000      -0.82380000
H       -0.94950000      -2.32010000      -1.00480000
H       -0.93800000      -2.45250000       0.75130000
H       -3.31570000      -3.37580000      -2.10020000
H       -5.75660000      -3.78290000      -0.85940000
