12
Properties=species:S:1:pos:R:3 gdb_4532=T pbc="F F F"
O        0.07410000       1.28270000       0.10800000
C        0.09300000      -0.05900000       0.01680000
N        0.16570000      -0.76630000      -1.08280000
C        0.12240000      -2.07970000      -0.65870000
O        0.19150000      -3.11180000      -1.53450000
C        0.03880000      -2.15660000       0.69860000
O       -0.07440000      -3.17310000       1.59470000
N        0.02850000      -0.81710000       1.13100000
H        0.11260000       1.61580000      -0.79710000
H        0.23950000      -2.71700000      -2.41250000
H        0.74260000      -3.68470000       1.60050000
H       -0.08250000      -0.50020000       2.07870000
