16
Properties=species:S:1:pos:R:3 gdb_3022=T pbc="F F F"
O       -0.05600000       1.33330000      -0.27210000
C        0.00530000      -0.07230000      -0.04040000
C       -1.44170000      -0.54400000       0.10990000
O       -2.19130000      -0.13640000      -1.02200000
C       -1.52040000      -2.05190000       0.23440000
C       -2.74240000      -2.78030000      -0.17340000
N       -1.50800000      -2.88210000      -0.97940000
H        0.79280000       1.62890000      -0.61210000
H        0.47130000      -0.59500000      -0.88750000
H        0.57710000      -0.30450000       0.86980000
H       -1.85430000      -0.08460000       1.02440000
H       -1.88010000       0.75440000      -1.22820000
H       -0.92550000      -2.45210000       1.05390000
H       -3.02810000      -3.69010000       0.34690000
H       -3.56340000      -2.19440000      -0.57380000
H       -1.61270000      -2.25310000      -1.77450000
