19
Properties=species:S:1:pos:R:3 gdb_36488=T pbc="F F F"
N       -0.03910000      -1.21290000      -0.07530000
C       -0.01280000      -0.05840000      -0.04490000
C        0.00340000       1.40340000      -0.03090000
C        1.41820000       1.99870000       0.04310000
C        1.44580000       3.54250000      -0.07590000
C        2.72410000       3.93330000       0.69470000
C        2.89110000       2.81090000       1.71060000
C        1.68820000       2.39640000       2.47570000
N        2.11320000       1.62860000       1.29150000
H       -0.49550000       1.76140000      -0.93860000
H       -0.59360000       1.75380000       0.81890000
H        2.01490000       1.56420000      -0.76720000
H        1.45980000       3.87400000      -1.11680000
H        0.55720000       3.98510000       0.38670000
H        3.59060000       3.94700000       0.02470000
H        2.65430000       4.92250000       1.15690000
H        3.88130000       2.61940000       2.11330000
H        1.79660000       1.85950000       3.41270000
H        0.80110000       3.02310000       2.42110000
