16
Properties=species:S:1:pos:R:3 gdb_11606=T pbc="F F F"
N       -0.20170000       1.21920000       0.23530000
C        0.03390000      -0.09970000      -0.02950000
O        1.10980000      -0.58070000      -0.29870000
O       -1.13030000      -0.79510000       0.02300000
C       -1.01610000      -2.19020000      -0.30580000
C       -2.38790000      -2.79230000      -0.22550000
C       -2.52990000      -4.20850000       0.19480000
N       -2.98140000      -3.12260000       1.07870000
H        0.60520000       1.78760000       0.42510000
H       -1.07960000       1.48450000       0.64800000
H       -0.59020000      -2.28970000      -1.30980000
H       -0.32700000      -2.67540000       0.39520000
H       -3.10410000      -2.38480000      -0.93560000
H       -3.32280000      -4.82010000      -0.22520000
H       -1.62700000      -4.75610000       0.45410000
H       -2.29750000      -2.96730000       1.81630000
