14
Properties=species:S:1:pos:R:3 gdb_49954=T pbc="F F F"
O        0.20550000       0.20050000      -0.76160000
C        0.12490000       1.30340000      -0.28730000
N        1.10110000       1.87440000       0.52940000
C        2.50510000       1.79070000       0.25620000
C        1.79020000       3.14130000       0.21760000
C        1.56620000       3.74100000      -1.07770000
C        1.36690000       4.24400000      -2.15020000
C        1.95750000       4.06480000       1.31530000
C        2.11540000       4.83770000       2.22040000
H       -0.76020000       1.95620000      -0.38370000
H        3.14950000       1.58500000       1.10520000
H        2.80730000       1.36580000      -0.69690000
H        1.19610000       4.68790000      -3.10030000
H        2.24620000       5.52030000       3.02390000
