17
Properties=species:S:1:pos:R:3 gdb_51608=T pbc="F F F"
O        0.41360000       1.47100000       1.43580000
C        0.29690000       1.82240000       0.27760000
N        1.26830000       1.77090000      -0.67010000
C        2.54360000       1.12930000      -0.51670000
C        3.78680000       1.91410000      -0.85570000
C        3.49850000       1.55730000       0.57540000
N        3.09580000       2.57410000       1.48960000
C        3.89320000       3.61930000       1.84130000
O        4.99180000       3.85290000       1.38480000
H       -0.64100000       2.25310000      -0.12360000
H        1.01630000       2.07850000      -1.59760000
H        2.54050000       0.06630000      -0.74540000
H        4.60060000       1.40840000      -1.36070000
H        3.65220000       2.95440000      -1.12540000
H        4.09180000       0.75250000       1.00390000
H        2.21820000       2.41740000       1.96940000
H        3.40500000       4.25830000       2.60470000
