16
Properties=species:S:1:pos:R:3 gdb_30567=T pbc="F F F"
C       -0.04220000       1.40040000       0.03840000
N        0.05390000      -0.04480000       0.07280000
C        0.55760000      -0.60390000      -0.93340000
O        0.66650000      -1.96240000      -0.94160000
C        1.21100000      -2.57320000      -2.02810000
C        1.36890000      -3.92970000      -2.14650000
N        1.95150000      -4.09040000      -3.39060000
C        2.10740000      -2.85960000      -3.93570000
N        1.66630000      -1.91270000      -3.13110000
H        0.50660000       1.82360000       0.88750000
H        0.34580000       1.85600000      -0.88670000
H       -1.08980000       1.70000000       0.15710000
H        0.93420000      -0.12040000      -1.83820000
H        1.13290000      -4.75130000      -1.49480000
H        2.21090000      -4.96690000      -3.81030000
H        2.54250000      -2.70340000      -4.91070000
