18
Properties=species:S:1:pos:R:3 gdb_14374=T pbc="F F F"
C       -0.02800000       1.50120000       0.19620000
C        1.51150000       1.56160000      -0.14220000
C        1.28690000       0.25960000      -0.91340000
C        1.77770000      -1.10120000      -1.42710000
C        0.40960000      -0.92450000      -2.17380000
C       -0.72670000      -0.92010000      -1.10380000
C        0.02800000      -0.03880000      -0.07620000
O        0.69900000       0.50070000      -2.23640000
H       -0.32600000       1.81550000       1.19830000
H       -0.61910000       2.03700000      -0.54690000
H        1.89160000       2.41160000      -0.71230000
H        2.12360000       1.41540000       0.75150000
H        2.60540000      -1.05060000      -2.13590000
H        1.90710000      -1.91260000      -0.70550000
H        0.22090000      -1.38600000      -3.14370000
H       -1.62670000      -0.46560000      -1.52540000
H       -0.98400000      -1.90940000      -0.71460000
H        0.25340000      -0.57390000       0.85040000
