13
Properties=species:S:1:pos:R:3 gdb_21090=T pbc="F F F"
C       -0.02930000       1.45030000      -0.00390000
N       -0.00670000      -0.00830000       0.00310000
N       -0.04460000      -0.62430000      -1.18670000
C       -0.02370000      -1.92640000      -1.17270000
N        0.03330000      -2.72560000      -0.06270000
C        0.06970000      -2.11740000       1.08100000
C        0.05290000      -0.66240000       1.23740000
O        0.08730000      -0.04840000       2.28970000
H        0.87150000       1.83640000       0.47970000
H       -0.08170000       1.77180000      -1.04200000
H       -0.89350000       1.80880000       0.56090000
H       -0.05470000      -2.41580000      -2.13830000
H        0.11570000      -2.70260000       1.99710000
