19
Properties=species:S:1:pos:R:3 gdb_82625=T pbc="F F F"
C       -0.10490000       1.54150000      -0.02150000
C        0.00810000       0.02120000       0.01090000
C        1.01740000      -0.58090000      -0.99810000
O        2.27820000      -0.10760000      -0.53360000
C        2.19050000      -0.60080000       0.79160000
C        1.34370000      -1.84880000       0.69340000
O        1.01320000      -1.96750000      -0.67920000
C        0.72690000      -0.56150000       1.23160000
C        0.27250000      -0.37240000       2.65100000
H        0.88120000       2.00520000       0.06450000
H       -0.56120000       1.88160000      -0.95740000
H       -0.72980000       1.90770000       0.79920000
H       -0.96850000      -0.45310000      -0.13190000
H        0.90120000      -0.41680000      -2.06620000
H        3.06380000      -0.44050000       1.40700000
H        1.47530000      -2.78110000       1.22320000
H        0.94800000      -0.87160000       3.35390000
H        0.24210000       0.68830000       2.92440000
H       -0.72940000      -0.78850000       2.80670000
