18
Properties=species:S:1:pos:R:3 gdb_86638=T pbc="F F F"
C        0.78310000       1.23650000      -0.19860000
C       -0.03430000      -0.04670000      -0.13550000
C        0.30430000      -1.07840000      -1.23530000
C        1.21450000      -2.08390000      -0.52760000
C        2.70840000      -1.89170000      -0.78140000
O        3.17340000      -1.05380000      -1.50900000
C        0.94540000      -1.85890000       0.95360000
N        1.36420000      -2.61620000       1.87430000
O        0.22560000      -0.72340000       1.12300000
H        1.85200000       1.01840000      -0.27360000
H        0.49370000       1.81750000      -1.08010000
H        0.60580000       1.84660000       0.69110000
H       -1.10150000       0.19300000      -0.12720000
H       -0.60180000      -1.57020000      -1.59540000
H        0.81010000      -0.61160000      -2.08260000
H        0.99260000      -3.12960000      -0.76310000
H        3.34640000      -2.59930000      -0.21430000
H        1.09440000      -2.25680000       2.79130000
