15
Properties=species:S:1:pos:R:3 gdb_67069=T pbc="F F F"
O        0.20830000       1.31940000       0.11550000
C        0.21610000      -0.06280000      -0.01070000
C        0.01390000      -0.66830000      -1.44040000
C       -0.51100000      -1.95830000      -0.80760000
C       -1.14330000      -0.76840000      -0.05340000
C       -1.34300000      -0.68490000       1.45710000
C        0.26110000      -0.66120000       1.46070000
O        1.08000000      -1.06620000       2.21600000
O       -1.41430000      -0.10470000      -1.37220000
H       -0.44390000       1.62790000      -0.53650000
H        0.52130000      -0.49310000      -2.39210000
H       -1.20620000      -2.52730000      -1.42350000
H        0.20230000      -2.58870000      -0.27150000
H       -1.71380000       0.28530000       1.79520000
H       -1.84090000      -1.49700000       1.98870000
