19
Properties=species:S:1:pos:R:3 gdb_73960=T pbc="F F F"
C        0.12860000       1.53370000      -0.01040000
C       -0.04720000       0.04010000       0.03710000
C       -1.21080000      -0.64260000       0.00560000
C       -1.22520000      -2.15570000       0.01030000
C        0.14270000      -2.70880000      -0.36850000
O        1.16080000      -2.08100000       0.39840000
C        1.26490000      -0.71000000       0.11340000
C       -2.53000000       0.01120000      -0.03140000
O       -3.57610000      -0.60210000      -0.07800000
H        0.86780000       1.79850000      -0.77670000
H       -0.78570000       2.08330000      -0.22820000
H        0.52780000       1.90070000       0.94350000
H       -1.51720000      -2.52060000       1.00290000
H       -1.99680000      -2.51060000      -0.68050000
H        0.21760000      -3.77870000      -0.15880000
H        0.33190000      -2.55800000      -1.44450000
H        1.80840000      -0.54320000      -0.83780000
H        1.88830000      -0.27390000       0.90460000
H       -2.53670000       1.11890000      -0.00570000
