17
Properties=species:S:1:pos:R:3 gdb_47203=T pbc="F F F"
O       -0.06870000       0.22200000      -0.80340000
C       -0.02040000       1.25760000      -0.17530000
C       -1.27800000       1.77630000       0.52510000
N       -1.16910000       3.18220000       0.87200000
C        0.06300000       3.74970000       1.09060000
N        1.19730000       3.29130000       0.73220000
C        1.22330000       2.05660000       0.01020000
C        2.51790000       1.24260000       0.12230000
C        2.23670000       1.97570000      -1.13700000
H       -2.12890000       1.60160000      -0.14020000
H       -1.42560000       1.13950000       1.41350000
H       -1.95030000       3.59480000       1.35660000
H        0.02280000       4.71280000       1.59960000
H        3.24600000       1.65500000       0.81000000
H        2.40330000       0.16520000       0.12100000
H        1.92420000       1.40170000      -2.00130000
H        2.77090000       2.89770000      -1.33000000
