20
Properties=species:S:1:pos:R:3 gdb_67586=T pbc="F F F"
C        0.03720000       1.54100000       0.02990000
C       -0.01990000       0.04560000      -0.04140000
C        1.03530000      -0.86570000      -0.66040000
C        0.39680000      -1.96600000      -1.48210000
C       -0.86430000      -2.12970000      -0.66570000
N       -0.61610000      -1.89010000       0.79750000
C        0.62910000      -1.03410000       0.78330000
C       -1.28920000      -0.84620000      -0.04770000
C       -2.69180000      -0.38730000       0.20340000
H        1.06170000       1.88190000       0.21110000
H       -0.30340000       2.00380000      -0.90440000
H       -0.58750000       1.93120000       0.84120000
H        2.00890000      -0.45190000      -0.89410000
H        0.17960000      -1.66420000      -2.51280000
H        1.00170000      -2.87910000      -1.50530000
H       -1.58530000      -2.91270000      -0.87570000
H        1.28360000      -1.01060000       1.64500000
H       -2.74580000       0.26390000       1.08270000
H       -3.08730000       0.16910000      -0.65440000
H       -3.34440000      -1.24650000       0.38370000
