18
Properties=species:S:1:pos:R:3 gdb_19360=T pbc="F F F"
C       -0.26520000       1.49770000      -0.05570000
C        0.10290000       0.01190000       0.07060000
C        0.82920000      -0.51230000      -1.13040000
N        0.16430000      -0.83020000      -2.41750000
C        0.96250000      -1.86780000      -1.71040000
C        2.47720000      -1.61190000      -1.99180000
N        2.60930000      -0.43090000      -2.87940000
C        2.35240000      -0.25000000      -1.43050000
H        0.62910000       2.11350000      -0.19590000
H       -0.91930000       1.66790000      -0.91620000
H       -0.78040000       1.85250000       0.84190000
H        0.72730000      -0.13790000       0.96180000
H       -0.80380000      -0.58680000       0.22870000
H       -0.81210000      -1.02700000      -2.18980000
H        0.52530000      -2.80910000      -1.40160000
H        3.26880000      -2.34240000      -1.88860000
H        3.61180000      -0.28630000      -3.00940000
H        3.02570000       0.30960000      -0.79320000
