22
Properties=species:S:1:pos:R:3 gdb_15828=T pbc="F F F"
C        0.01440000       1.61910000      -0.13470000
C       -0.02320000       0.09150000      -0.02910000
C        0.63600000      -0.59860000      -1.22900000
C        0.71170000      -2.13910000      -1.14270000
C       -0.67150000      -2.80060000      -1.18670000
C        1.63870000      -2.64060000      -2.23880000
C        1.50130000      -3.91390000      -2.95740000
O        1.12520000      -2.68040000      -3.57540000
H        1.04490000       1.98730000      -0.19130000
H       -0.50850000       1.96600000      -1.03280000
H       -0.46120000       2.09140000       0.73060000
H        0.48300000      -0.22460000       0.89310000
H       -1.06520000      -0.23480000       0.06880000
H        0.10890000      -0.32310000      -2.15210000
H        1.65640000      -0.20530000      -1.33700000
H        1.19600000      -2.39620000      -0.18830000
H       -1.34490000      -2.35840000      -0.44880000
H       -1.11990000      -2.67750000      -2.17720000
H       -0.61260000      -3.87100000      -0.96810000
H        2.64670000      -2.22180000      -2.18280000
H        2.38800000      -4.39210000      -3.37250000
H        0.67920000      -4.58870000      -2.73070000
