25
Properties=species:S:1:pos:R:3 gdb_119913=T pbc="F F F"
C       -1.38230000       0.93410000       0.86010000
O       -1.00190000      -0.37060000       0.50130000
C        0.15000000      -0.39690000      -0.32340000
C        0.50610000      -1.83490000      -0.59030000
C       -0.20120000      -2.66520000      -1.64540000
C       -1.32460000      -2.11990000      -2.50160000
C        1.26250000      -2.30350000      -1.82320000
C        1.69760000      -1.32100000      -2.89740000
C        2.27580000      -3.41520000      -1.60820000
H       -0.59000000       1.45360000       1.42380000
H       -1.62840000       1.54860000      -0.02150000
H       -2.27030000       0.85630000       1.49260000
H       -0.04230000       0.16390000      -1.25070000
H        0.98680000       0.11390000       0.18530000
H        0.74930000      -2.36390000       0.32830000
H       -0.36900000      -3.69950000      -1.35160000
H       -1.15210000      -1.09170000      -2.82800000
H       -1.45900000      -2.72860000      -3.40270000
H       -2.26800000      -2.12910000      -1.94580000
H        0.96920000      -0.53060000      -3.08640000
H        2.64340000      -0.83910000      -2.62210000
H        1.86480000      -1.84460000      -3.84630000
H        2.43420000      -3.98670000      -2.53100000
H        3.24800000      -3.01200000      -1.29900000
H        1.94470000      -4.11550000      -0.83520000
