18
Properties=species:S:1:pos:R:3 gdb_70283=T pbc="F F F"
O       -0.11840000       1.39160000      -0.46590000
C       -0.10290000       0.08450000       0.00970000
C       -0.23700000      -1.08210000      -0.93270000
C       -1.36650000      -0.73480000       0.01970000
C       -1.42040000      -1.50100000       1.32930000
N       -0.06390000      -1.35010000       1.86510000
C        0.60890000      -0.17020000       1.33550000
C        0.51550000      -2.29100000       2.65350000
O       -0.03750000      -3.29020000       3.06560000
H        0.69180000       1.54180000      -0.96490000
H       -0.40170000      -0.83280000      -1.97490000
H        0.34400000      -1.98320000      -0.75870000
H       -2.28120000      -0.32650000      -0.39090000
H       -2.16640000      -1.06170000       2.00510000
H       -1.64340000      -2.56620000       1.23090000
H        1.68460000      -0.35510000       1.23910000
H        0.46710000       0.71460000       1.97230000
H        1.57210000      -2.04560000       2.88330000
