20
Properties=species:S:1:pos:R:3 gdb_107969=T pbc="F F F"
C       -0.05620000       1.53320000      -0.01080000
C        0.00750000       0.00140000      -0.04530000
C        0.63780000      -0.53060000      -1.30170000
C        0.25250000      -0.28650000      -2.77250000
C        1.56080000      -1.07550000      -2.82140000
N        2.14960000      -0.28620000      -1.63310000
C        2.52520000      -1.58800000      -0.93160000
C        1.19420000      -1.95740000      -1.58030000
O        0.42930000      -3.10900000      -1.50460000
H        0.94460000       1.96290000      -0.11070000
H       -0.67020000       1.92270000      -0.82910000
H       -0.49060000       1.88480000       0.92960000
H        0.56810000      -0.36880000       0.82210000
H       -1.00070000      -0.42410000       0.03840000
H       -0.64390000      -0.79720000      -3.13100000
H        0.30090000       0.74790000      -3.12220000
H        2.19780000      -1.33490000      -3.66910000
H        3.44000000      -2.04140000      -1.32870000
H        2.57650000      -1.50770000       0.15830000
H        0.93500000      -3.84250000      -1.87210000
