25
Properties=species:S:1:pos:R:3 gdb_104404=T pbc="F F F"
C        0.40390000       1.58690000       0.13190000
C        0.24530000       0.06650000       0.02430000
C        0.60820000      -0.51230000      -1.36260000
C       -0.35680000      -0.02660000      -2.44600000
O        1.92820000      -0.04950000      -1.72200000
C        2.89530000      -1.09150000      -1.61170000
C        2.19720000      -2.26550000      -0.92170000
C        0.73660000      -2.06230000      -1.35140000
C       -0.29240000      -2.84010000      -0.53240000
H        1.40780000       1.88690000      -0.17830000
H       -0.31660000       2.12010000      -0.49590000
H        0.24630000       1.91810000       1.16300000
H        0.88600000      -0.40660000       0.77840000
H       -0.78450000      -0.21760000       0.27210000
H       -0.35940000       1.06390000      -2.51400000
H       -0.05710000      -0.42160000      -3.42080000
H       -1.37970000      -0.35740000      -2.23610000
H        3.24130000      -1.37520000      -2.61710000
H        3.76300000      -0.71840000      -1.05530000
H        2.60020000      -3.23520000      -1.22630000
H        2.29160000      -2.19550000       0.16780000
H        0.65220000      -2.38720000      -2.39740000
H       -0.21850000      -2.61710000       0.53630000
H       -1.31550000      -2.61620000      -0.85320000
H       -0.14040000      -3.91750000      -0.65450000
