16
Properties=species:S:1:pos:R:3 gdb_34208=T pbc="F F F"
N        0.11640000      -1.18720000       0.08680000
C        0.06470000      -0.03390000       0.02670000
C       -0.04420000       1.41310000      -0.03650000
C       -1.22060000       2.10860000       0.70650000
N       -1.38600000       3.11600000      -0.39160000
C       -0.30060000       4.15850000      -0.31000000
C        0.73830000       3.19740000      -0.92920000
N        1.23520000       2.15220000      -0.00630000
C       -0.46700000       2.27950000      -1.27080000
H       -2.10960000       1.47310000       0.76450000
H       -1.00340000       2.51840000       1.69830000
H       -0.55300000       4.99350000      -0.97190000
H       -0.10250000       4.54880000       0.69410000
H        1.48580000       3.58120000      -1.62620000
H        1.54920000       2.45820000       0.91210000
H       -0.79770000       1.91580000      -2.24010000
