15
Properties=species:S:1:pos:R:3 gdb_46009=T pbc="F F F"
O        0.00870000      -0.03490000       0.40940000
C       -0.02160000       1.15400000       0.16120000
C       -1.33800000       1.87610000      -0.09490000
C       -1.23610000       3.33650000      -0.38840000
C       -0.07080000       3.99160000      -0.42930000
C        1.25770000       3.32180000      -0.18340000
N        1.11520000       1.90760000       0.09750000
C       -0.01490000       5.39000000      -0.71380000
N        0.06780000       6.52250000      -0.94110000
H       -1.84150000       1.35210000      -0.91760000
H       -1.97910000       1.70270000       0.77910000
H       -2.15850000       3.87830000      -0.57510000
H        1.90130000       3.47230000      -1.06240000
H        1.76250000       3.82690000       0.65300000
H        1.95910000       1.38150000       0.27480000
