19
Properties=species:S:1:pos:R:3 gdb_97105=T pbc="F F F"
C        0.02370000       1.41630000       0.01320000
N        0.19170000      -0.02890000      -0.05730000
C        0.51200000      -0.66130000       0.97370000
O        0.75400000      -0.22440000       2.27270000
C        1.07870000      -1.57800000       2.72490000
C        0.78840000      -2.09350000       1.31740000
C        0.10320000      -3.30490000       0.79750000
N        1.53060000      -3.09690000       0.58850000
C        1.97280000      -2.77050000      -0.76770000
H        0.67150000       1.88850000      -0.73320000
H       -1.00830000       1.67050000      -0.25340000
H        0.24760000       1.84430000       0.99690000
H        2.12140000      -1.65090000       3.04360000
H        0.40300000      -1.89810000       3.52200000
H       -0.16750000      -4.11080000       1.47520000
H       -0.57220000      -3.15060000      -0.04320000
H        1.27670000      -2.11560000      -1.30740000
H        2.94460000      -2.27110000      -0.71270000
H        2.09940000      -3.70500000      -1.32200000
