21
Properties=species:S:1:pos:R:3 gdb_109382=T pbc="F F F"
O        0.07810000       1.44670000       0.10150000
C        0.01340000       0.04510000      -0.08560000
C       -1.41290000      -0.43780000      -0.03460000
C       -2.45000000       0.40020000      -0.00260000
C       -3.88930000      -0.03670000       0.05300000
C       -4.03410000      -1.52800000       0.38790000
C       -3.00550000      -2.35970000      -0.38190000
C       -1.58230000      -1.94770000      -0.01260000
O       -0.70000000      -2.59550000      -0.94120000
H        0.95370000       1.74140000      -0.16210000
H        0.45080000      -0.25050000      -1.05200000
H        0.59880000      -0.48170000       0.69370000
H       -2.25230000       1.46760000      -0.02020000
H       -4.43390000       0.57370000       0.78460000
H       -4.36680000       0.17880000      -0.91530000
H       -3.88360000      -1.67350000       1.46580000
H       -5.04890000      -1.87380000       0.16530000
H       -3.13180000      -3.43040000      -0.19290000
H       -3.12670000      -2.20770000      -1.46160000
H       -1.35670000      -2.31310000       1.00440000
H        0.15690000      -2.70300000      -0.51960000
