15
Properties=species:S:1:pos:R:3 gdb_71927=T pbc="F F F"
O        0.39570000       1.36530000      -0.14050000
C        0.13320000       0.01850000      -0.10330000
C        0.41170000      -0.78570000      -1.39000000
C       -0.74020000      -1.75010000      -1.04700000
O       -0.35240000      -2.69530000      -0.01730000
C       -0.66380000      -1.75490000       1.02550000
C       -1.30230000      -0.76010000       0.00720000
C        0.44250000      -0.69860000       1.21070000
O        0.99750000      -0.25220000       2.17970000
H        0.64100000       1.63520000       0.75630000
H        0.14130000      -0.15890000      -2.24660000
H        1.40800000      -1.20830000      -1.53960000
H       -1.29770000      -2.23000000      -1.85160000
H       -1.12320000      -2.20360000       1.90650000
H       -2.27930000      -0.29430000       0.07490000
