18
Properties=species:S:1:pos:R:3 gdb_123790=T pbc="F F F"
C       -0.40230000       1.01790000      -0.21280000
C        1.03670000       1.11720000       0.23770000
C        0.43250000      -0.23190000      -0.01510000
N        0.21620000      -1.11590000       1.09000000
C       -0.96570000      -1.85250000       1.16380000
C       -1.45430000      -2.57350000       2.24060000
N       -2.60590000      -3.16140000       1.80760000
N       -2.90070000      -2.88080000       0.53440000
C       -1.91020000      -2.08320000       0.13210000
H       -1.17340000       1.21690000       0.52270000
H       -0.65060000       1.32090000      -1.22410000
H        1.78160000       1.48540000      -0.45850000
H        1.22020000       1.40100000       1.26960000
H        0.75100000      -0.74100000      -0.92290000
H        0.56190000      -0.77750000       1.97390000
H       -1.08170000      -2.71060000       3.24280000
H       -3.22390000      -3.75380000       2.33400000
H       -1.90110000      -1.69960000      -0.87600000
