18
Properties=species:S:1:pos:R:3 gdb_85369=T pbc="F F F"
C       -0.41450000       1.47990000      -0.01200000
C        0.01530000      -0.00090000       0.03090000
N        0.76500000      -0.41960000      -1.15430000
C        1.98530000       0.02070000      -1.60770000
O        2.31600000      -0.15440000      -2.77250000
C        2.93280000       0.65610000      -0.65930000
C        2.96950000       0.57730000       0.68240000
C        2.01690000      -0.05600000       1.58190000
C        0.73400000      -0.33370000       1.31880000
H        0.45610000       2.13890000       0.02510000
H       -0.96990000       1.68710000      -0.93190000
H       -1.05820000       1.71350000       0.84190000
H       -0.89540000      -0.60770000       0.00610000
H        0.22480000      -0.83300000      -1.90140000
H        3.75150000       1.13870000      -1.18240000
H        3.83610000       1.01710000       1.17230000
H        2.39840000      -0.29250000       2.57220000
H        0.13110000      -0.79440000       2.09650000
