16
Properties=species:S:1:pos:R:3 gdb_133668=T pbc="F F F"
O        0.11680000       1.56210000       0.07820000
C        0.06190000       0.15680000      -0.06320000
C        0.70250000      -0.34890000      -1.33470000
C        0.17650000      -1.59190000      -2.00780000
C       -0.05360000      -0.24160000      -2.63300000
C        0.69200000      -0.49360000       1.17360000
F        0.07070000      -0.12780000       2.29750000
F        0.66140000      -1.83070000       1.10480000
F        1.98420000      -0.11860000       1.28560000
H        1.04600000       1.82000000       0.08140000
H       -1.00150000      -0.10570000      -0.05020000
H        1.77760000      -0.19300000      -1.37630000
H        0.89460000      -2.26270000      -2.46490000
H       -0.66820000      -2.09520000      -1.55020000
H       -1.05430000       0.17580000      -2.59820000
H        0.50400000       0.01810000      -3.52550000
