17
Properties=species:S:1:pos:R:3 gdb_85451=T pbc="F F F"
C        0.08020000       1.67370000      -0.05700000
C        0.06040000       0.15610000       0.08010000
O        0.70090000      -0.43600000      -1.07100000
C        1.91210000      -0.98280000      -0.76890000
O        2.61120000      -1.48580000      -1.59680000
C        2.17830000      -0.82470000       0.72560000
C        0.83880000      -0.39480000       1.27680000
C        0.54870000      -0.05620000       2.66980000
O        0.14710000      -1.31640000       2.12130000
H        1.10420000       2.05960000      -0.02920000
H       -0.37040000       1.96830000      -1.00800000
H       -0.48730000       2.13910000       0.75410000
H       -0.96560000      -0.22130000       0.10820000
H        2.53230000      -1.76080000       1.15960000
H        2.95750000      -0.06750000       0.86310000
H        1.34600000      -0.09860000       3.41090000
H       -0.26370000       0.62960000       2.90760000
