16
Properties=species:S:1:pos:R:3 gdb_14107=T pbc="F F F"
O       -0.00980000       1.29260000      -0.15680000
C        0.04450000      -0.08500000       0.03030000
C       -0.47850000      -0.70280000       1.32190000
C       -1.26690000      -0.81440000       0.05850000
O       -2.44260000      -0.02190000      -0.15510000
C       -2.90240000      -0.94570000      -1.17890000
C       -1.77430000      -1.95080000      -0.82420000
O       -0.94260000      -2.44650000      -1.83340000
H       -0.94070000       1.50390000      -0.32440000
H        0.90840000      -0.54790000      -0.44070000
H        0.00950000      -1.59430000       1.70380000
H       -0.85850000      -0.01760000       2.07310000
H       -3.93520000      -1.25790000      -1.00160000
H       -2.80780000      -0.52340000      -2.18730000
H       -2.13240000      -2.82000000      -0.26760000
H       -0.52260000      -1.69600000      -2.26980000
