12
Properties=species:S:1:pos:R:3 gdb_20473=T pbc="F F F"
C        0.19540000       1.50550000       0.09370000
O        1.17190000       0.49890000      -0.13990000
C       -0.18150000       0.08030000       0.03600000
C       -0.48640000      -0.68500000       1.25780000
N       -1.32420000      -1.67410000       1.37220000
C       -1.21370000      -1.97420000       2.70750000
N       -0.37240000      -1.23700000       3.37820000
O        0.12290000      -0.36100000       2.40370000
H        0.25430000       1.99860000       1.06150000
H       -0.04260000       2.14180000      -0.75690000
H       -0.67740000      -0.31350000      -0.84730000
H       -1.77180000      -2.76430000       3.18820000
