11
Properties=species:S:1:pos:R:3 gdb_8728=T pbc="F F F"
O       -0.04900000       1.48210000      -0.07240000
C       -0.00030000       0.08600000      -0.05860000
C        0.67540000      -0.50280000      -1.22250000
C        1.25370000      -0.98990000      -2.15600000
C        0.74990000      -0.39940000       1.19590000
O        1.35280000       0.36660000       1.90270000
C        0.70070000      -1.83870000       1.47070000
N        0.62230000      -2.96980000       1.69680000
H        0.67190000       1.79230000       0.49640000
H       -1.02830000      -0.30250000      -0.00650000
H        1.75250000      -1.41760000      -2.99150000
