17
Properties=species:S:1:pos:R:3 gdb_32953=T pbc="F F F"
C        0.19110000       1.29910000       0.18570000
O        0.09880000      -0.10310000       0.10120000
C        0.56000000      -0.59900000      -1.14510000
C        0.49750000      -2.07470000      -1.16700000
C       -0.26170000      -2.99580000      -1.79990000
N        0.13350000      -4.28160000      -1.44480000
C        1.11500000      -4.07310000      -0.61880000
N        1.91340000      -5.00620000      -0.00950000
O        1.41280000      -2.77840000      -0.39020000
H        1.22920000       1.65030000       0.06920000
H       -0.42520000       1.79870000      -0.57930000
H       -0.17100000       1.59020000       1.17450000
H       -0.05930000      -0.21590000      -1.97240000
H        1.59290000      -0.25360000      -1.32350000
H       -1.07480000      -2.82670000      -2.48900000
H        1.49750000      -5.92540000       0.01090000
H        2.30450000      -4.71730000       0.87490000
