16
Properties=species:S:1:pos:R:3 gdb_43987=T pbc="F F F"
O       -0.05270000       0.01260000       0.10380000
C       -0.03580000       1.19770000      -0.06430000
C       -1.16830000       2.26380000      -0.19120000
C       -0.07050000       3.29940000       0.12500000
C        0.20760000       4.15290000       1.33850000
O        1.56450000       3.87780000       1.70070000
C        1.95190000       2.55760000       1.28350000
C        1.03630000       2.24580000       0.12940000
N        0.95420000       3.31030000      -0.88620000
H       -1.69230000       2.39430000      -1.14150000
H       -1.90390000       2.10580000       0.60310000
H        0.14100000       5.23030000       1.16350000
H       -0.49440000       3.88000000       2.14220000
H        3.01350000       2.60650000       1.02970000
H        1.80650000       1.81760000       2.08370000
H        0.61780000       2.96300000      -1.78100000
