18
Properties=species:S:1:pos:R:3 gdb_113622=T pbc="F F F"
C       -0.44190000       1.31490000      -0.21710000
C       -0.08990000      -0.17760000      -0.19300000
C        0.86500000      -0.59570000      -1.29110000
C        1.00650000      -2.03450000      -1.67920000
N        0.39740000      -1.09230000      -2.59730000
C       -0.92500000      -1.22690000      -2.97880000
N       -1.51890000      -2.35530000      -3.04900000
C       -1.54770000       0.02130000      -3.39590000
N       -2.09250000       0.98560000      -3.72940000
H        0.46120000       1.93000000      -0.14100000
H       -0.95980000       1.59460000      -1.13830000
H       -1.09070000       1.57170000       0.62510000
H        0.38740000      -0.42330000       0.76440000
H       -0.99810000      -0.78990000      -0.24720000
H        1.74790000       0.03430000      -1.38740000
H        1.97110000      -2.42730000      -1.98700000
H        0.33940000      -2.75340000      -1.21120000
H       -2.44710000      -2.25800000      -3.45810000
