22
Properties=species:S:1:pos:R:3 gdb_65133=T pbc="F F F"
C        1.21530000      -0.95580000      -0.22860000
C        0.08250000       0.03920000      -0.02720000
C        0.20740000       0.97210000       1.15900000
C        0.38150000       1.50780000      -0.23760000
C       -1.27840000      -0.56120000      -0.26990000
C       -2.46100000      -0.02140000      -0.98080000
C       -2.16390000       0.79030000      -2.24040000
C       -1.25320000      -0.37820000      -2.67420000
N       -1.70080000      -1.24030000      -1.51540000
H        2.18020000      -0.51010000       0.03260000
H        1.07190000      -1.84010000       0.40280000
H        1.27190000      -1.30160000      -1.26590000
H       -0.69990000       1.24320000       1.68900000
H        1.08200000       0.87160000       1.79300000
H        1.38080000       1.77170000      -0.56900000
H       -0.39470000       2.15860000      -0.61720000
H       -1.57120000      -1.20040000       0.56510000
H       -3.45480000      -0.12540000      -0.55280000
H       -3.05080000       0.86520000      -2.87340000
H       -1.73460000       1.78800000      -2.13300000
H       -1.54220000      -0.84960000      -3.61490000
H       -0.17850000      -0.18000000      -2.69170000
