22
Properties=species:S:1:pos:R:3 gdb_102177=T pbc="F F F"
C       -0.11120000       1.28480000       0.36340000
C        0.11510000      -0.19440000       0.04140000
C        0.74130000      -0.48550000      -1.33280000
C        0.94280000      -2.01460000      -1.47950000
C        1.82040000      -2.42980000      -2.56740000
C        2.56510000      -2.79010000      -3.44020000
N       -0.13950000      -0.01350000      -2.39990000
C        0.04110000       1.35740000      -2.87290000
C        0.45460000       0.20840000      -3.71780000
H        0.81920000       1.85880000       0.28710000
H       -0.84390000       1.73710000      -0.30920000
H       -0.48510000       1.39890000       1.38580000
H        0.77060000      -0.63040000       0.80570000
H       -0.83920000      -0.73240000       0.10160000
H        1.73310000       0.00140000      -1.38550000
H        1.34890000      -2.40390000      -0.53790000
H       -0.04680000      -2.47010000      -1.60730000
H        3.21390000      -3.10930000      -4.21760000
H       -0.87170000       1.90690000      -3.08550000
H        0.83600000       1.95340000      -2.42810000
H        1.52030000       0.03170000      -3.83220000
H       -0.15140000      -0.10610000      -4.56240000
