17
Properties=species:S:1:pos:R:3 gdb_12693=T pbc="F F F"
C       -0.06190000       1.57770000       0.02480000
C        0.07110000       0.04970000       0.00740000
N        0.82320000      -0.44580000      -1.16540000
C        2.17390000      -0.82840000      -0.70180000
C        1.96610000      -1.37980000       0.71800000
O        3.08090000      -1.38390000       1.56020000
C        0.86610000      -0.44720000       1.21980000
O        0.76070000      -0.10350000       2.37150000
H        0.92010000       2.05330000      -0.05510000
H       -0.66960000       1.91020000      -0.81990000
H       -0.52720000       1.90390000       0.95890000
H       -0.93250000      -0.39170000       0.03410000
H        0.36110000      -1.26080000      -1.55080000
H        2.62620000      -1.54280000      -1.39140000
H        2.82520000       0.05290000      -0.65420000
H        1.52140000      -2.39030000       0.63280000
H        2.77330000      -1.02880000       2.40850000
