19
Properties=species:S:1:pos:R:3 gdb_114347=T pbc="F F F"
C        0.59060000       1.02240000      -0.38850000
O        0.56270000      -0.36950000      -0.09220000
C        0.63840000      -0.65420000       1.29550000
C        0.53660000      -2.18130000       1.48030000
C        1.95580000      -2.63270000       1.79490000
C        3.05620000      -2.22890000       0.82210000
O        2.85500000      -1.89650000      -0.50670000
C        2.73590000      -1.35010000       2.00720000
O        1.87380000      -0.24170000       1.83720000
H        1.52470000       1.48190000      -0.05000000
H        0.50320000       1.11710000      -1.47230000
H       -0.25610000       1.53520000       0.08840000
H       -0.14650000      -0.07870000       1.80420000
H       -0.12560000      -2.41550000       2.31790000
H        0.11630000      -2.63060000       0.57690000
H        2.08570000      -3.50510000       2.42530000
H        3.97630000      -2.79800000       0.92600000
H        2.07770000      -1.31750000      -0.57820000
H        3.44510000      -1.17940000       2.80970000
