22
Properties=species:S:1:pos:R:3 gdb_115838=T pbc="F F F"
C       -0.14490000       1.54750000       0.08310000
C       -0.00730000       0.04650000      -0.05530000
C        0.63650000      -0.72040000      -1.16240000
C        1.58680000      -0.07810000      -2.16640000
C        0.90700000       0.76870000      -3.23510000
O        1.91060000       1.19830000      -4.14590000
C        2.62360000       0.68060000      -1.30260000
C        2.49010000       0.05510000       0.10990000
N        1.23180000      -0.71630000       0.19220000
H        0.65290000       2.11790000      -0.39080000
H       -1.09400000       1.87300000      -0.35700000
H       -0.16810000       1.82380000       1.14370000
H       -0.85590000      -0.46550000       0.40030000
H        0.17000000      -1.65370000      -1.47210000
H        2.09510000      -0.89520000      -2.69380000
H        0.13680000       0.16970000      -3.74740000
H        0.39880000       1.62800000      -2.77100000
H        1.49470000       1.74830000      -4.81620000
H        3.63430000       0.57270000      -1.70210000
H        2.41070000       1.75320000      -1.29640000
H        3.30320000      -0.65400000       0.29610000
H        2.53000000       0.80380000       0.90830000
