21
Properties=species:S:1:pos:R:3 gdb_102664=T pbc="F F F"
O        0.28350000       1.31330000       0.08660000
C        0.09810000      -0.07860000      -0.06090000
C       -1.38060000      -0.50940000       0.01310000
C       -2.15810000      -0.06890000      -1.22960000
O       -2.08110000       1.35260000      -1.35650000
C       -1.52760000      -2.03320000       0.19020000
C       -1.09530000      -2.53560000       1.54780000
C       -0.58080000      -3.89600000       1.74840000
O        0.30110000      -2.77250000       1.75100000
H       -0.34870000       1.73450000      -0.51010000
H        0.52060000      -0.44890000      -1.01430000
H        0.66570000      -0.55870000       0.74020000
H       -1.82530000      -0.00430000       0.88170000
H       -1.72990000      -0.55900000      -2.11860000
H       -3.20920000      -0.38570000      -1.14920000
H       -2.42110000       1.60450000      -2.21980000
H       -2.57950000      -2.31630000       0.04560000
H       -0.94940000      -2.56090000      -0.57910000
H       -1.58280000      -2.05190000       2.39700000
H       -0.71060000      -4.39170000       2.70930000
H       -0.48430000      -4.56310000       0.89240000
