24
Properties=species:S:1:pos:R:3 gdb_57846=T pbc="F F F"
C        0.52750000       1.07670000       0.92480000
N        0.31270000      -0.35170000       0.73370000
C        1.50150000      -1.14200000       0.98400000
C       -0.93760000      -0.77000000       0.32680000
O       -1.82660000       0.05170000       0.15480000
C       -1.24600000      -2.27770000       0.08090000
C       -2.71720000      -2.36170000      -0.37620000
C       -0.37950000      -2.86260000      -1.05770000
C       -1.12360000      -3.10380000       1.38220000
H        1.32000000       1.43760000       0.25610000
H       -0.40010000       1.60100000       0.70920000
H        0.83690000       1.28180000       1.95780000
H        1.87670000      -0.94760000       1.99790000
H        1.31520000      -2.20490000       0.89530000
H        2.30150000      -0.87380000       0.27970000
H       -2.87960000      -1.79320000      -1.29380000
H       -2.98030000      -3.40880000      -0.55980000
H       -3.39150000      -1.95730000       0.38070000
H        0.68510000      -2.92730000      -0.82560000
H       -0.72280000      -3.87630000      -1.29090000
H       -0.48500000      -2.26170000      -1.96670000
H       -1.74930000      -2.67200000       2.16990000
H       -1.47870000      -4.12380000       1.20000000
H       -0.10710000      -3.18030000       1.77280000
