20
Properties=species:S:1:pos:R:3 gdb_86459=T pbc="F F F"
C       -0.01470000       1.44890000      -0.00100000
N        0.02280000      -0.00350000      -0.03540000
C        0.69010000      -0.51540000      -1.22400000
C        0.47610000      -2.02270000      -1.34060000
O        1.14800000      -2.44350000      -2.51770000
C        1.01470000      -2.73390000      -0.09040000
C        0.54640000      -2.07900000       1.19960000
O        0.21060000      -2.70900000       2.17310000
C        0.58220000      -0.55290000       1.19520000
H        0.99070000       1.90720000       0.06300000
H       -0.50380000       1.82690000      -0.90380000
H       -0.59280000       1.78340000       0.86600000
H        0.26530000      -0.02850000      -2.10660000
H        1.77920000      -0.30690000      -1.22780000
H       -0.60600000      -2.20480000      -1.42150000
H        0.98370000      -3.38410000      -2.63780000
H        0.75400000      -3.79590000      -0.06430000
H        2.11120000      -2.65460000      -0.11860000
H        1.64070000      -0.24410000       1.34790000
H        0.00980000      -0.19890000       2.05590000
