20
Properties=species:S:1:pos:R:3 gdb_22170=T pbc="F F F"
C       -0.02170000       1.53370000       0.04630000
C        0.00240000      -0.00370000       0.01460000
C       -1.43110000      -0.56090000       0.01890000
C        0.81890000      -0.53750000      -1.20700000
C        1.95800000      -1.31550000      -0.60610000
C        1.93440000      -1.31710000       0.73350000
C        0.78980000      -0.54990000       1.21270000
N        0.40640000      -0.30560000       2.40760000
O        1.26020000      -0.89400000       3.36010000
H        0.99370000       1.94320000       0.03250000
H       -0.56090000       1.93080000      -0.82090000
H       -0.51390000       1.88870000       0.95590000
H       -1.99160000      -0.19500000      -0.84860000
H       -1.42770000      -1.65530000      -0.01490000
H       -1.95630000      -0.25520000       0.92790000
H        0.20490000      -1.17040000      -1.86070000
H        1.18580000       0.28140000      -1.83940000
H        2.70570000      -1.81280000      -1.21490000
H        2.63860000      -1.80150000       1.39450000
H        0.85020000      -0.62720000       4.18920000
