17
Properties=species:S:1:pos:R:3 gdb_99093=T pbc="F F F"
C        0.01220000       1.37210000      -0.20420000
O       -0.13120000      -0.05520000      -0.25890000
C       -1.27290000      -0.53620000       0.25880000
O       -2.13660000       0.14710000       0.74780000
C       -1.32130000      -2.05190000       0.17520000
C       -2.72390000      -2.51910000      -0.24760000
O       -2.97880000      -2.19020000      -1.58410000
C       -2.88130000      -4.00810000      -0.02510000
O       -3.20140000      -4.75390000      -0.91840000
H        0.97500000       1.59000000      -0.66570000
H       -0.79730000       1.85780000      -0.75410000
H       -0.00590000       1.72090000       0.83120000
H       -0.56840000      -2.42120000      -0.52360000
H       -1.08390000      -2.43570000       1.17600000
H       -3.44350000      -2.01410000       0.42130000
H       -3.21090000      -3.02530000      -2.02040000
H       -2.69360000      -4.37500000       1.00510000
