18
Properties=species:S:1:pos:R:3 gdb_88323=T pbc="F F F"
C        0.07770000       1.54700000      -0.15790000
C       -0.03390000       0.06160000       0.08030000
N        1.19160000      -0.74840000       0.02950000
C        0.46410000      -0.63940000       1.30560000
C        1.16690000       0.05530000       2.43580000
N        0.60550000       0.12700000       3.57150000
N        2.43400000       0.54740000       2.07140000
C        3.31420000       1.22090000       2.87490000
O        3.12200000       1.53730000       4.02870000
H        0.97500000       1.96420000       0.30350000
H        0.11520000       1.76060000      -1.23120000
H       -0.79210000       2.06290000       0.26080000
H       -0.92330000      -0.39270000      -0.35470000
H        1.03890000      -1.65020000      -0.41060000
H       -0.12980000      -1.47970000       1.65140000
H        1.20050000       0.62650000       4.23350000
H        2.71330000       0.30460000       1.12660000
H        4.25390000       1.45590000       2.33880000
