20
Properties=species:S:1:pos:R:3 gdb_110025=T pbc="F F F"
C        0.03270000       1.59330000      -0.08970000
C        0.07820000       0.06730000       0.03950000
C       -1.31120000      -0.55950000       0.20290000
C       -1.38800000      -2.08800000       0.04610000
O       -0.22890000      -2.64230000       0.64780000
C       -2.66920000      -2.46230000       0.83260000
N       -2.73460000      -1.42250000       1.83750000
C       -1.97760000      -0.31470000       1.56940000
O       -1.88580000       0.66570000       2.27750000
H        1.04220000       2.00330000      -0.19380000
H       -0.54140000       1.89780000      -0.97320000
H       -0.43620000       2.03750000       0.79030000
H        0.55300000      -0.36990000      -0.84710000
H        0.70040000      -0.22130000       0.89120000
H       -1.99090000      -0.12010000      -0.54260000
H       -1.46510000      -2.39360000      -1.00570000
H       -0.25650000      -3.59750000       0.53730000
H       -3.55170000      -2.46470000       0.17550000
H       -2.57780000      -3.45830000       1.28070000
H       -3.31650000      -1.46230000       2.65830000
