18
Properties=species:S:1:pos:R:3 gdb_91274=T pbc="F F F"
C        0.11650000       1.58390000      -0.05980000
C        0.07850000       0.07250000       0.06320000
N        0.97260000      -0.67250000      -0.86630000
C        1.38980000      -1.61040000       0.20440000
C        2.88480000      -1.61610000       0.46980000
C        3.10850000      -0.37870000       1.34020000
O        4.14120000       0.13070000       1.65530000
O        1.90180000       0.10620000       1.77540000
C        0.79900000      -0.62320000       1.24660000
H        1.13890000       1.95310000       0.04340000
H       -0.26600000       1.89360000      -1.03780000
H       -0.50460000       2.05210000       0.71110000
H       -0.96180000      -0.28610000       0.03210000
H        0.52170000      -1.09480000      -1.66970000
H        0.92790000      -2.60180000       0.17540000
H        3.21530000      -2.49640000       1.03200000
H        3.48640000      -1.54110000      -0.43730000
H        0.18870000      -0.98480000       2.07470000
