14
Properties=species:S:1:pos:R:3 gdb_132783=T pbc="F F F"
N        0.00930000       1.41780000      -0.15710000
C        0.03590000       0.04210000      -0.07270000
C       -1.16580000      -0.67690000      -0.11110000
O       -2.34710000       0.00690000      -0.17370000
C       -1.08970000      -2.06180000      -0.07370000
F       -2.26790000      -2.71400000      -0.10480000
N        0.00100000      -2.78080000      -0.00540000
C        1.15110000      -2.09170000       0.03250000
C        1.22000000      -0.70830000       0.00320000
H        0.80980000       1.90730000       0.20990000
H       -0.87560000       1.84790000       0.06500000
H       -3.06100000      -0.64140000      -0.16860000
H        2.05990000      -2.68290000       0.09110000
H        2.18050000      -0.20510000       0.03490000
