21
Properties=species:S:1:pos:R:3 gdb_62065=T pbc="F F F"
C        0.00920000       1.54890000      -0.15680000
C       -0.01640000       0.01820000      -0.00440000
C        0.84120000      -0.48930000       1.17620000
C        2.34500000      -0.21280000       1.03140000
C        3.13140000      -0.79230000       2.18240000
C        4.30710000      -0.12330000       2.75130000
O        3.04790000      -0.08730000       3.42560000
C       -1.44720000      -0.43350000       0.21760000
O       -2.04250000      -1.22490000      -0.46640000
H        1.02050000       1.91070000      -0.35830000
H       -0.62840000       1.87120000      -0.98570000
H       -0.34660000       2.04130000       0.75550000
H        0.32370000      -0.45680000      -0.93170000
H        0.48790000      -0.03660000       2.11150000
H        0.68990000      -1.57180000       1.27810000
H        2.71450000      -0.64650000       0.09240000
H        2.53590000       0.86440000       0.98850000
H        3.06710000      -1.87720000       2.29180000
H        5.08410000      -0.70980000       3.23990000
H        4.63900000       0.82550000       2.33090000
H       -1.93450000       0.03560000       1.10710000
