20
Properties=species:S:1:pos:R:3 gdb_102728=T pbc="F F F"
C       -0.27780000       1.37300000       0.03670000
N        0.11720000      -0.03290000       0.09290000
C        0.74470000      -0.51980000      -1.13150000
C        1.24850000      -1.96620000      -0.95030000
N        2.22640000      -2.01890000       0.12910000
C        1.77330000      -2.58130000       1.40630000
C        2.67280000      -3.35550000       0.51300000
C       -0.21680000      -0.48340000      -2.24700000
N       -0.95230000      -0.46370000      -3.13770000
H        0.54260000       2.05740000      -0.24070000
H       -1.08280000       1.50010000      -0.69330000
H       -0.66160000       1.67350000       1.01500000
H        0.79630000      -0.16120000       0.83540000
H        1.60960000       0.09810000      -1.43810000
H        0.38610000      -2.63030000      -0.78110000
H        1.73750000      -2.27670000      -1.87920000
H        2.16690000      -2.10080000       2.29750000
H        0.73630000      -2.90190000       1.47810000
H        2.24030000      -4.20490000      -0.01260000
H        3.73080000      -3.44990000       0.73880000
