23
Properties=species:S:1:pos:R:3 gdb_104158=T pbc="F F F"
C       -0.14040000       1.60400000       0.01000000
C        0.01830000       0.07580000       0.00120000
C       -1.36590000      -0.58250000      -0.00040000
O       -2.02950000      -0.24900000      -1.21140000
C        0.85550000      -0.39970000      -1.23520000
C        2.23130000      -0.79150000      -0.67680000
C        1.89170000      -1.38270000       0.69820000
O        2.97260000      -1.45430000       1.61340000
C        0.82870000      -0.41780000       1.23590000
H        0.83370000       2.09810000      -0.07020000
H       -0.76480000       1.93070000      -0.82580000
H       -0.60970000       1.94500000       0.94030000
H       -1.25190000      -1.67500000       0.09700000
H       -1.93890000      -0.23180000       0.87380000
H       -2.90110000      -0.65420000      -1.20130000
H        0.37280000      -1.26540000      -1.70050000
H        0.91530000       0.37070000      -2.00790000
H        2.78080000      -1.48240000      -1.32540000
H        2.86330000       0.09160000      -0.52100000
H        1.44670000      -2.38260000       0.55770000
H        3.62340000      -2.06690000       1.25710000
H        1.35340000       0.41780000       1.71170000
H        0.19640000      -0.87660000       2.00280000
