17
Properties=species:S:1:pos:R:3 gdb_45235=T pbc="F F F"
O       -0.04760000      -0.05160000      -0.16000000
C       -0.05170000       1.14470000      -0.02390000
C       -1.28580000       2.05940000       0.07250000
C       -0.67960000       3.37020000       0.59500000
C       -0.00780000       3.08450000       1.97460000
C        1.40180000       2.81460000       1.41920000
O        1.64220000       4.04790000       0.67780000
C        0.65420000       3.50970000      -0.22780000
C        1.14610000       2.06920000       0.05280000
H       -1.70170000       2.17650000      -0.93790000
H       -2.06720000       1.62580000       0.70170000
H       -1.34280000       4.23350000       0.56900000
H        0.01600000       3.95430000       2.63290000
H       -0.45750000       2.24180000       2.50720000
H        2.20900000       2.52580000       2.09080000
H        0.63170000       3.97500000      -1.21280000
H        2.05640000       1.73480000      -0.43860000
