19
Properties=species:S:1:pos:R:3 gdb_70338=T pbc="F F F"
C       -0.06600000       1.49540000      -0.05970000
C        0.16530000       0.01100000      -0.08810000
O       -0.54950000      -0.77930000       0.88080000
C        0.88790000      -0.77040000       0.93190000
C        1.55210000      -1.98180000       0.29190000
C        1.13770000      -1.94570000      -1.18200000
C       -0.32790000      -2.05450000      -1.56520000
C        0.32430000      -0.70200000      -1.43450000
O        0.58250000       0.08950000      -2.55460000
H        0.70950000       2.01540000      -0.62790000
H       -1.03510000       1.74750000      -0.50580000
H       -0.06480000       1.86030000       0.97010000
H        1.30840000      -0.33040000       1.83460000
H        2.64010000      -1.88100000       0.37810000
H        1.26920000      -2.91160000       0.79770000
H        1.85670000      -2.26620000      -1.92710000
H       -0.52010000      -2.39310000      -2.57820000
H       -1.05430000      -2.35150000      -0.81930000
H       -0.26180000       0.37570000      -2.91990000
