15
Properties=species:S:1:pos:R:3 gdb_43404=T pbc="F F F"
O       -0.03680000      -0.04350000      -0.11720000
C       -0.05030000       1.15540000       0.02790000
C       -1.28210000       1.95610000       0.11450000
C       -1.24810000       3.28370000       0.27660000
C        0.02640000       4.04030000       0.48850000
N        1.09900000       3.14900000       0.90900000
C        1.25750000       1.99230000       0.02780000
C        2.40630000       1.19060000       0.45190000
N        3.34330000       0.60290000       0.78210000
H       -2.20960000       1.40770000      -0.01110000
H       -2.16480000       3.86660000       0.25520000
H        0.25230000       4.60130000      -0.44240000
H       -0.12130000       4.79520000       1.26950000
H        1.97580000       3.65070000       0.98990000
H        1.42920000       2.26820000      -1.03380000
