23
Properties=species:S:1:pos:R:3 gdb_120501=T pbc="F F F"
C        0.03430000       1.63760000       0.03820000
C        0.00820000       0.10660000       0.01220000
C        0.67080000      -0.52340000       1.24290000
C        0.68740000      -2.06120000       1.24010000
C        1.50800000      -2.68360000       2.40000000
C        0.75240000      -3.96600000       2.83550000
O        0.77760000      -4.21480000       4.23580000
C       -0.62980000      -3.74690000       2.26410000
C       -0.66540000      -2.72220000       1.41430000
H        1.06210000       2.01460000       0.08320000
H       -0.43720000       2.06120000      -0.85400000
H       -0.49790000       2.02780000       0.91290000
H       -1.03110000      -0.23600000      -0.06730000
H        0.51540000      -0.25340000      -0.89290000
H        1.70660000      -0.16350000       1.31150000
H        0.16590000      -0.17320000       2.15420000
H        1.11470000      -2.38420000       0.27760000
H        2.55160000      -2.87180000       2.13620000
H        1.51080000      -1.99360000       3.25360000
H        1.21210000      -4.86390000       2.40240000
H        0.31040000      -3.48730000       4.66200000
H       -1.46040000      -4.39460000       2.52350000
H       -1.54370000      -2.40080000       0.86400000
