20
Properties=species:S:1:pos:R:3 gdb_99478=T pbc="F F F"
C       -0.02550000       1.60750000      -0.00890000
C       -0.00910000       0.07970000       0.05330000
C        0.64870000      -0.56390000      -1.18590000
C        2.05860000      -0.19030000      -1.32050000
C        3.21590000       0.12370000      -1.40090000
C        0.52340000      -2.08560000      -1.18910000
N        0.18080000      -2.73220000      -0.15710000
O        0.82640000      -2.55750000      -2.42570000
C        0.82390000      -3.96490000      -2.61230000
H        0.98840000       2.01320000      -0.07280000
H       -0.58460000       1.96650000      -0.88080000
H       -0.50100000       2.02350000       0.88420000
H        0.51840000      -0.26610000       0.94600000
H       -1.02800000      -0.31170000       0.12910000
H        0.12430000      -0.21360000      -2.08660000
H        4.23810000       0.39900000      -1.48340000
H        0.14250000      -3.73850000      -0.30990000
H        1.54690000      -4.45610000      -1.95000000
H       -0.17220000      -4.39080000      -2.43920000
H        1.11160000      -4.13280000      -3.65050000
