20
Properties=species:S:1:pos:R:3 gdb_17079=T pbc="F F F"
C        0.26800000       1.45050000      -0.13180000
C        1.16260000       0.22550000      -0.14450000
C       -0.33990000       0.08700000      -0.13600000
O       -1.00050000      -0.30450000       1.02760000
C       -1.11990000      -1.69890000       1.17860000
C        0.05360000      -2.51590000       1.79070000
C       -1.00700000      -3.30690000       2.60560000
C       -2.00540000      -2.14140000       2.35870000
H        0.20170000       2.00190000       0.79910000
H        0.19050000       2.05670000      -1.02720000
H        1.70310000      -0.02050000      -1.05220000
H        1.68490000      -0.01020000       0.77500000
H       -0.81830000      -0.25980000      -1.05350000
H       -1.45640000      -2.15340000       0.23420000
H        0.71420000      -3.06650000       1.11750000
H        0.65410000      -1.87340000       2.44100000
H       -1.31480000      -4.22390000       2.09550000
H       -0.76630000      -3.55200000       3.64160000
H       -1.95310000      -1.39410000       3.15560000
H       -3.05270000      -2.37660000       2.15720000
