16
Properties=species:S:1:pos:R:3 gdb_32146=T pbc="F F F"
C        0.05600000       1.40360000       0.04850000
O       -0.00510000      -0.01240000       0.01490000
C       -1.22760000      -0.59960000       0.00180000
C       -2.44900000       0.08710000       0.01790000
N       -3.62370000      -0.54700000       0.00370000
C       -3.63720000      -1.87380000      -0.02680000
C       -2.46660000      -2.64350000      -0.04480000
O       -2.47960000      -4.00280000      -0.07600000
C       -1.24130000      -1.99400000      -0.03020000
H        1.11660000       1.65930000       0.05470000
H       -0.41870000       1.84880000      -0.83470000
H       -0.41900000       1.80640000       0.95160000
H       -2.48820000       1.17010000       0.04280000
H       -4.61240000      -2.36070000      -0.03770000
H       -3.39360000      -4.30750000      -0.08260000
H       -0.31290000      -2.55180000      -0.04330000
