19
Properties=species:S:1:pos:R:3 gdb_99609=T pbc="F F F"
C        0.29500000       1.25190000       0.44600000
N        0.05010000      -0.13120000       0.04710000
C        0.54710000      -0.49170000      -1.27370000
C        2.01330000      -0.31090000      -1.40670000
N        3.15410000      -0.13120000      -1.46370000
C        0.10470000      -1.92850000      -1.58140000
C       -1.38320000      -2.08410000      -1.80070000
C        1.04800000      -2.91990000      -2.11580000
O        0.71440000      -2.89650000      -0.72050000
H        1.35690000       1.54310000       0.43380000
H       -0.24960000       1.92580000      -0.22450000
H       -0.09410000       1.40090000       1.45640000
H        0.44850000      -0.77640000       0.72230000
H        0.07760000       0.17840000      -2.00610000
H       -1.68950000      -1.60110000      -2.73500000
H       -1.64380000      -3.14320000      -1.85460000
H       -1.93480000      -1.62310000      -0.97790000
H        0.65040000      -3.76850000      -2.67040000
H        2.07170000      -2.64130000      -2.35280000
