18
Properties=species:S:1:pos:R:3 gdb_87068=T pbc="F F F"
O        0.30910000       1.15480000       0.08560000
C       -0.03150000      -0.18190000       0.20780000
C       -0.77050000      -0.72330000       1.39110000
C       -1.46720000      -0.68650000       0.02110000
C       -2.42900000       0.37560000      -0.13070000
N       -3.14280000       1.27860000      -0.26150000
C       -1.76350000      -1.92700000      -0.77910000
C       -1.20570000      -3.27950000      -0.41360000
C       -2.67650000      -3.00220000      -0.24210000
H       -0.49180000       1.69470000       0.08530000
H        0.72910000      -0.81690000      -0.23510000
H       -0.49560000      -1.69320000       1.78930000
H       -1.12380000      -0.01230000       2.12920000
H       -1.84340000      -1.72820000      -1.84420000
H       -0.88930000      -3.92050000      -1.22860000
H       -0.60120000      -3.38090000       0.48080000
H       -3.04580000      -2.88110000       0.77040000
H       -3.38050000      -3.46530000      -0.92340000
