18
Properties=species:S:1:pos:R:3 gdb_92257=T pbc="F F F"
O        0.01330000       1.41380000      -0.17050000
C        0.01470000       0.01940000       0.01180000
C        0.17660000      -0.56830000       1.46480000
C       -1.09420000      -1.43760000       1.25450000
O       -2.28520000      -0.93720000       1.90240000
C       -2.57370000      -0.10130000       0.76340000
C       -3.44410000      -0.76080000      -0.34120000
N       -2.21410000      -0.95930000      -1.16990000
C       -1.36410000      -0.61550000      -0.04780000
H        0.92390000       1.72430000      -0.18110000
H        0.70820000      -0.47610000      -0.68480000
H        1.10160000      -1.11980000       1.64520000
H        0.03470000       0.18400000       2.24320000
H       -0.99250000      -2.52280000       1.32560000
H       -2.76360000       0.94010000       1.02400000
H       -3.92800000      -1.67490000       0.02010000
H       -4.18650000      -0.12110000      -0.82940000
H       -2.08440000      -1.88210000      -1.57240000
