20
Properties=species:S:1:pos:R:3 gdb_38965=T pbc="F F F"
C       -0.15670000       1.04900000      -0.20630000
C        0.98020000       1.79250000       0.53350000
C        2.16060000       0.78730000       0.57300000
C        2.71500000       0.40190000       1.96760000
C        1.97320000      -0.86740000       2.35350000
N        0.50770000      -0.72180000       2.24180000
C        1.26440000      -1.40710000       1.16690000
C        1.54220000      -0.50900000      -0.03120000
O        0.41590000      -0.12190000      -0.79140000
H       -0.95400000       0.77250000       0.49170000
H       -0.59210000       1.63550000      -1.02190000
H        1.26640000       2.70510000       0.00420000
H        0.66380000       2.07350000       1.53950000
H        2.96780000       1.15120000      -0.06560000
H        3.78780000       0.18520000       1.90650000
H        2.58570000       1.20060000       2.70550000
H        2.37460000      -1.51770000       3.12460000
H        0.05260000      -1.42380000       2.81970000
H        1.10910000      -2.47070000       1.01810000
H        2.22280000      -1.02870000      -0.71540000
