17
Properties=species:S:1:pos:R:3 gdb_28874=T pbc="F F F"
C        0.09370000       1.51150000       0.06890000
C        0.02700000       0.00870000       0.00020000
C        0.00410000      -0.66130000      -1.22000000
N        0.06190000      -0.03230000      -2.47780000
C       -0.02040000      -2.07040000      -1.16360000
N       -0.03880000      -2.79900000      -2.34070000
N       -0.07240000      -2.73110000      -0.00940000
C       -0.07430000      -1.98300000       1.09640000
N       -0.00870000      -0.66070000       1.16830000
H        1.01110000       1.89860000      -0.39120000
H       -0.75320000       1.97790000      -0.45140000
H        0.07040000       1.82350000       1.11340000
H       -0.07620000       0.96820000      -2.43140000
H       -0.59620000      -0.43460000      -3.13700000
H        0.53080000      -2.41350000      -3.08260000
H        0.11920000      -3.78560000      -2.18630000
H       -0.12430000      -2.52210000       2.03950000
