17
Properties=species:S:1:pos:R:3 gdb_63510=T pbc="F F F"
C       -0.24330000       1.67660000      -0.69570000
C       -0.17230000       0.22920000      -0.28740000
O       -1.13710000      -0.50920000      -0.40770000
C        1.15570000      -0.28710000       0.24610000
C        1.09540000      -1.02970000       1.56600000
C        2.03450000      -0.61190000       2.59990000
O        2.81490000       0.31600000       2.50320000
C        0.29140000      -2.08230000       1.85820000
O       -0.66630000      -2.61540000       1.11750000
H       -0.04320000       2.30870000       0.17740000
H        0.54500000       1.89760000      -1.42430000
H       -1.22190000       1.91250000      -1.11430000
H       -0.88420000      -1.99300000       0.37810000
H        1.55020000      -0.94770000      -0.54180000
H        1.87300000       0.52800000       0.36710000
H        1.99060000      -1.22100000       3.53030000
H        0.41290000      -2.59570000       2.81080000
