19
Properties=species:S:1:pos:R:3 gdb_79159=T pbc="F F F"
C       -0.14900000       1.34610000      -0.16410000
C       -0.01730000      -0.06150000       0.31960000
C       -1.03930000      -0.93820000       0.46010000
C       -1.77110000      -1.33820000      -0.83450000
C       -0.71120000      -2.49970000      -0.82480000
C        0.71190000      -2.24330000      -0.15650000
C       -0.52200000      -2.37360000       0.65620000
C        1.30210000      -0.86010000       0.13750000
O        2.10270000      -0.31410000      -0.89730000
H        0.59910000       1.59050000      -0.92270000
H       -1.15370000       1.54140000      -0.55420000
H        0.00910000       2.04790000       0.66670000
H       -2.77090000      -1.77480000      -0.72470000
H       -1.77760000      -0.60650000      -1.64900000
H       -0.82610000      -3.42760000      -1.38200000
H        1.38730000      -3.08870000      -0.27670000
H       -0.74230000      -3.06510000       1.45840000
H        1.97090000      -0.91140000       1.00690000
H        1.62860000      -0.44970000      -1.72580000
