18
Properties=species:S:1:pos:R:3 gdb_62299=T pbc="F F F"
C       -0.14880000       1.58360000      -0.02650000
C       -0.04460000       0.05830000      -0.00600000
C       -1.33100000      -0.55720000      -0.33500000
N       -2.35060000      -1.03710000      -0.59570000
C        1.19030000      -0.61930000      -0.66960000
C        2.12580000      -0.28230000       0.54350000
C        2.61010000      -1.74050000       0.66070000
C        1.12220000      -1.86240000       0.28260000
C        0.72560000      -0.62650000       1.16110000
H        0.81410000       2.03770000       0.21970000
H       -0.45470000       1.94030000      -1.01450000
H       -0.88950000       1.93350000       0.69880000
H        1.46110000      -0.62070000      -1.72620000
H        2.69010000       0.63840000       0.69040000
H        3.33710000      -2.07770000      -0.08430000
H        2.89440000      -2.08460000       1.65970000
H        0.51380000      -2.75220000       0.12460000
H        0.45970000      -0.63620000       2.21890000
