14
Properties=species:S:1:pos:R:3 gdb_16135=T pbc="F F F"
O       -0.85800000       1.14600000      -0.21030000
C        0.26130000       0.91510000       0.18540000
C        1.39890000       1.85160000       0.05100000
C        1.11420000       3.34520000      -0.04220000
C        1.66330000       2.68960000      -1.25580000
N        3.09560000       2.65070000      -1.34470000
C        3.56230000       1.88640000      -0.28820000
N        2.68340000       1.42290000       0.52490000
H        0.53000000      -0.04410000       0.67670000
H        0.05760000       3.58660000      -0.06760000
H        1.75420000       4.00790000       0.53070000
H        1.08440000       2.58550000      -2.16520000
H        3.55050000       2.61040000      -2.24360000
H        4.62990000       1.73070000      -0.17490000
