19
Properties=species:S:1:pos:R:3 gdb_19397=T pbc="F F F"
C       -0.06940000       1.56480000      -0.06620000
C        0.02950000       0.04840000       0.01220000
C        1.06180000      -0.65740000      -0.89120000
N        2.40600000      -0.18660000      -0.47250000
C        1.73300000      -1.27970000       0.28180000
C        0.76120000      -0.60460000       1.22460000
C        1.03910000      -0.03670000       2.58090000
C        0.11290000      -1.22490000       2.42460000
H        0.92500000       2.01280000       0.00170000
H       -0.52730000       1.87890000      -1.01080000
H       -0.68570000       1.96490000       0.74680000
H       -0.95520000      -0.41480000      -0.11600000
H        0.89920000      -1.05140000      -1.88720000
H        3.07800000      -0.62990000      -1.09940000
H        2.19620000      -2.25380000       0.38760000
H        2.02040000      -0.19830000       3.01470000
H        0.59540000       0.92180000       2.83120000
H       -0.95180000      -1.06860000       2.56980000
H        0.46600000      -2.19700000       2.75520000
