20
Properties=species:S:1:pos:R:3 gdb_63431=T pbc="F F F"
C        0.01960000       1.54900000       0.15640000
C        0.04140000       0.03480000       0.02710000
O       -1.26130000      -0.47980000      -0.22460000
C        1.10040000      -0.61170000      -0.92280000
C        1.30910000      -1.72690000       0.13750000
C        2.74460000      -2.20160000       0.38510000
C        2.84270000      -3.13900000       1.50360000
N        2.89930000      -3.87690000       2.39130000
C        0.63410000      -0.80580000       1.18900000
H        1.01060000       1.94450000       0.39930000
H       -0.30260000       2.01550000      -0.78350000
H       -0.67970000       1.85230000       0.94180000
H       -1.58000000      -0.08770000      -1.04530000
H        0.74840000      -0.91150000      -1.91340000
H        1.98890000       0.01910000      -1.03430000
H        0.67160000      -2.58690000      -0.07820000
H        3.14550000      -2.68880000      -0.51210000
H        3.39560000      -1.34380000       0.59500000
H        1.36830000      -0.23680000       1.76750000
H       -0.09430000      -1.25340000       1.86620000
