17
Properties=species:S:1:pos:R:3 gdb_47359=T pbc="F F F"
O        0.00620000      -0.08450000       0.08030000
C       -0.00960000       1.12980000       0.03590000
C       -1.32620000       1.90510000       0.04570000
C       -1.18640000       3.38510000       0.45900000
C       -0.01980000       4.02730000      -0.31630000
C        1.28010000       3.30960000       0.03710000
N        1.13760000       1.86550000      -0.08720000
C       -2.43870000       4.11300000       0.24950000
N       -3.42530000       4.68720000       0.06910000
H       -1.74120000       1.84590000      -0.96710000
H       -2.01530000       1.36680000       0.69880000
H       -0.95860000       3.43580000       1.53230000
H       -0.21800000       3.95050000      -1.39080000
H        0.07170000       5.08850000      -0.07180000
H        2.08050000       3.64440000      -0.63100000
H        1.58180000       3.58280000       1.06010000
H        1.97680000       1.30330000      -0.06450000
