13
Properties=species:S:1:pos:R:3 gdb_12615=T pbc="F F F"
O        0.23540000       1.32490000       0.42560000
C       -0.00540000       0.01130000       0.04020000
C       -1.47110000      -0.37430000      -0.16250000
O       -2.44010000       0.06560000       0.38430000
C       -1.47860000      -1.45720000      -1.26460000
N       -0.18210000      -1.27610000      -1.90330000
C        0.62080000      -0.34750000      -1.31120000
O        1.64060000       0.14530000      -1.74300000
H        1.02840000       1.59470000      -0.06230000
H        0.39200000      -0.71930000       0.77420000
H       -1.59820000      -2.45360000      -0.81900000
H       -2.31620000      -1.28590000      -1.94810000
H        0.03230000      -1.62400000      -2.82540000
