15
Properties=species:S:1:pos:R:3 gdb_19647=T pbc="F F F"
C        0.04000000       1.33700000      -0.18110000
O       -0.04660000      -0.02930000       0.21310000
C       -1.30070000      -0.54010000       0.13590000
C       -1.68450000      -1.99900000      -0.06970000
C       -2.97310000      -1.75230000       0.75120000
C       -2.61280000      -0.32570000       0.96730000
N       -3.45410000      -0.70780000      -0.22220000
C       -2.17900000      -0.93020000      -1.03360000
H        1.08960000       1.62340000      -0.09420000
H       -0.29490000       1.47080000      -1.21730000
H       -0.56480000       1.97920000       0.47230000
H       -1.04260000      -2.85300000      -0.22900000
H       -3.65140000      -2.40970000       1.28300000
H       -2.94580000       0.39920000       1.70110000
H       -2.09900000      -0.82840000      -2.10820000
