13
Properties=species:S:1:pos:R:3 gdb_44338=T pbc="F F F"
O        0.13420000       0.21840000       0.58170000
C        0.11580000       1.26700000       0.03020000
O       -0.97050000       2.10840000       0.00510000
C       -0.69060000       3.19280000      -0.84960000
C        0.48590000       4.15610000      -0.58160000
N        1.34400000       3.95050000       0.56210000
C        1.73860000       2.74650000       0.50170000
N        1.24280000       1.94930000      -0.62420000
C        0.62360000       2.96170000      -1.50270000
H       -1.56950000       3.56240000      -1.35990000
H        0.37380000       5.17090000      -0.94060000
H        2.34170000       2.24590000       1.24980000
H        0.84890000       2.93730000      -2.56110000
