19
Properties=species:S:1:pos:R:3 gdb_39426=T pbc="F F F"
C        0.02390000       1.43500000       0.08600000
O        1.31620000       1.93880000      -0.24660000
C        2.22400000       2.09260000       0.82310000
C        2.43360000       0.93480000       1.79680000
N        1.31760000       0.58660000       2.68210000
C        1.81350000      -0.42830000       1.74910000
C        0.90030000      -0.93310000       0.66550000
N       -0.55630000      -0.93110000       0.91110000
C        0.00880000      -0.06410000      -0.13690000
H       -0.24970000       1.66230000       1.11970000
H       -0.68370000       1.93100000      -0.58740000
H        3.18390000       2.31660000       0.34430000
H        1.94900000       2.96950000       1.43410000
H        3.42550000       0.97720000       2.24960000
H        1.62810000       0.39390000       3.62930000
H        2.42590000      -1.22100000       2.17940000
H        1.31310000      -1.79580000       0.14520000
H       -0.98140000      -1.75460000       0.49260000
H       -0.13560000      -0.36650000      -1.17290000
