15
Properties=species:S:1:pos:R:3 gdb_1611=T pbc="F F F"
C       -0.00380000       1.41790000      -0.11870000
N       -0.00300000      -0.03590000      -0.18840000
C        1.22640000      -0.65610000       0.28600000
C       -1.21990000      -0.66220000      -0.00450000
N       -2.29140000      -0.01020000       0.25080000
C       -1.27040000      -2.15450000      -0.28330000
O       -2.24280000      -2.81640000      -0.02550000
H        0.93180000       1.79080000      -0.54560000
H       -0.85200000       1.80640000      -0.68220000
H       -0.09330000       1.78330000       0.91450000
H        1.43340000      -0.40050000       1.33670000
H        1.17990000      -1.74320000       0.21300000
H        2.07040000      -0.31140000      -0.31980000
H       -3.07390000      -0.66800000       0.24950000
H       -0.39530000      -2.60040000      -0.79710000
