18
Properties=species:S:1:pos:R:3 gdb_125957=T pbc="F F F"
C       -0.05170000       1.59520000      -0.00980000
C        0.02230000       0.06770000       0.04730000
C        0.77050000      -0.57880000      -1.17410000
C        1.51760000      -1.86230000      -0.67410000
C        1.63870000      -1.56560000       0.78780000
N        2.29480000      -2.03720000       1.84170000
N        1.83860000      -1.24800000       2.82280000
N        0.94790000      -0.30580000       2.48890000
C        0.81640000      -0.50750000       1.18260000
H        0.95170000       2.03230000      -0.04260000
H       -0.59680000       1.92610000      -0.89990000
H       -0.56350000       1.99540000       0.87020000
H       -1.00270000      -0.32730000       0.09080000
H        0.09280000      -0.78940000      -2.00510000
H        1.51300000       0.14070000      -1.53700000
H        0.92000000      -2.76600000      -0.84560000
H        2.47380000      -2.00960000      -1.18350000
H        2.17870000      -1.33650000       3.76630000
