18
Properties=species:S:1:pos:R:3 gdb_22159=T pbc="F F F"
C       -0.03140000       1.48480000      -0.00640000
C        0.01390000      -0.02350000       0.05280000
N        0.06700000      -0.69650000       1.15070000
O        0.07630000       0.15910000       2.25570000
C       -0.00200000      -0.76840000      -1.15980000
C       -0.01860000      -1.33170000      -2.22730000
C       -0.03650000      -2.05600000      -3.48900000
C        0.01580000      -3.57620000      -3.29660000
O       -0.00740000      -4.15240000      -4.59100000
H        0.85070000       1.90670000       0.48520000
H       -0.07350000       1.83270000      -1.03820000
H       -0.90430000       1.85610000       0.53970000
H        0.11680000      -0.46130000       2.99130000
H       -0.94080000      -1.80870000      -4.05910000
H        0.81340000      -1.75540000      -4.11450000
H        0.92950000      -3.84320000      -2.74570000
H       -0.84380000      -3.89700000      -2.68990000
H        0.02310000      -5.10870000      -4.49650000
