21
Properties=species:S:1:pos:R:3 gdb_82884=T pbc="F F F"
C       -0.06500000       1.53760000       0.11980000
C       -0.02670000       0.03220000       0.09910000
C        0.92940000      -0.73090000      -0.92410000
C        1.98720000      -0.83130000       0.20650000
C        0.75580000      -0.88850000       1.11920000
C       -0.26440000      -1.97740000       0.55770000
C        0.30250000      -2.14390000      -0.86660000
C       -1.28690000      -0.83410000       0.31740000
O       -2.07320000      -0.43690000       1.42230000
H        0.93410000       1.97480000       0.22210000
H       -0.50340000       1.92950000      -0.80580000
H       -0.68140000       1.89550000       0.95120000
H        1.17110000      -0.30990000      -1.90050000
H        2.68600000      -1.67400000       0.17970000
H        2.54260000       0.09910000       0.35370000
H        0.80230000      -0.72010000       2.19590000
H       -0.53920000      -2.86680000       1.12440000
H       -0.48280000      -2.32050000      -1.60770000
H        1.05340000      -2.93320000      -0.96520000
H       -1.99390000      -0.96380000      -0.50890000
H       -1.49210000      -0.30540000       2.17950000
