14
Properties=species:S:1:pos:R:3 gdb_26726=T pbc="F F F"
O        0.02250000       1.36500000       0.00670000
C        0.06920000       0.00210000      -0.04480000
C        0.08450000      -0.83570000      -1.12970000
O        0.13370000      -0.48760000      -2.44310000
C        0.04650000      -2.18130000      -0.63890000
C        0.05050000      -3.41460000      -1.41190000
O        0.02350000      -4.52990000      -0.92940000
C       -0.00320000      -2.09750000       0.74740000
N        0.00820000      -0.78710000       1.09590000
H        0.91670000       1.71910000       0.09120000
H        0.01160000       0.46720000      -2.50100000
H        0.07930000      -3.26950000      -2.51250000
H       -0.04920000      -2.89010000       1.47500000
H       -0.06710000      -0.42040000       2.02970000
