19
Properties=species:S:1:pos:R:3 gdb_32468=T pbc="F F F"
C       -0.19590000       1.55240000      -0.06960000
C        0.06930000       0.03810000       0.00080000
C        0.80320000      -0.49580000      -1.18210000
C        2.01840000      -1.04810000      -1.29200000
O        2.28210000      -1.38070000      -2.61310000
C        1.17380000      -1.03640000      -3.36590000
N        0.28270000      -0.46140000      -2.47930000
N        1.00530000      -1.21070000      -4.60490000
C        2.07810000      -1.84300000      -5.35320000
H        0.74390000       2.10840000      -0.13200000
H       -0.79550000       1.81440000      -0.94680000
H       -0.73800000       1.88900000       0.81870000
H        0.65460000      -0.19580000       0.89570000
H       -0.88600000      -0.49350000       0.11000000
H        2.79190000      -1.25820000      -0.57480000
H       -0.65230000      -0.21740000      -2.75100000
H        1.71660000      -2.08520000      -6.35630000
H        2.94950000      -1.18150000      -5.46560000
H        2.43730000      -2.77140000      -4.88660000
