20
Properties=species:S:1:pos:R:3 gdb_85965=T pbc="F F F"
C       -0.10150000       1.45500000      -0.09480000
N       -0.03270000       0.02500000       0.11230000
C       -1.24110000      -0.67700000       0.59190000
C       -0.31570000      -1.62370000       1.41470000
O        0.02730000      -2.81790000       0.74880000
C        0.73740000      -0.48430000       1.26580000
C       -0.76910000      -1.94080000       2.83600000
C       -0.77770000      -3.38870000       3.26650000
O       -1.10490000      -1.03610000       3.56800000
H        0.88970000       1.83920000      -0.35830000
H       -0.77860000       1.67670000      -0.92660000
H       -0.45850000       2.00400000       0.79620000
H       -1.87390000      -0.06730000       1.25300000
H       -1.85060000      -1.15090000      -0.18550000
H        0.30700000      -2.57680000      -0.14160000
H        1.76350000      -0.79880000       1.04550000
H        0.72330000       0.18560000       2.13780000
H        0.22450000      -3.81730000       3.16540000
H       -1.12280000      -3.45930000       4.29830000
H       -1.42260000      -3.97460000       2.60380000
