19
Properties=species:S:1:pos:R:3 gdb_1317=T pbc="F F F"
C       -0.39860000       1.42780000      -0.04300000
C        0.07140000      -0.01860000      -0.07670000
C        1.41560000      -0.34390000      -0.75670000
O        1.87700000      -1.08440000       0.38730000
C        0.71940000      -0.68440000       1.18250000
C        1.15470000       0.25070000       2.30590000
C       -0.00880000      -1.90840000       1.71990000
H        0.38540000       2.10600000       0.30740000
H       -0.69450000       1.75690000      -1.04530000
H       -1.26830000       1.55190000       0.61140000
H       -0.73280000      -0.65340000      -0.46140000
H        1.37950000      -0.96130000      -1.66210000
H        2.04480000       0.53570000      -0.95780000
H        1.72200000       1.10150000       1.92040000
H        0.29260000       0.63260000       2.86340000
H        1.79920000      -0.29170000       3.00490000
H        0.62290000      -2.44960000       2.43220000
H       -0.93090000      -1.61660000       2.23520000
H       -0.26650000      -2.59170000       0.90590000
