19
Properties=species:S:1:pos:R:3 gdb_103550=T pbc="F F F"
C       -0.21580000       1.57150000       0.15720000
C       -0.09130000       0.05650000       0.10130000
C       -1.40800000      -0.63350000      -0.25210000
O       -1.80810000      -0.35240000      -1.58340000
N        1.01900000      -0.42860000      -0.78970000
C        1.84990000      -0.72590000       0.28890000
N        3.08200000      -0.91410000       0.50110000
C        0.71370000      -0.58120000       1.29420000
O        0.99580000       0.23280000       2.39830000
H        0.75190000       2.04300000       0.34420000
H       -0.62690000       1.94480000      -0.78540000
H       -0.88960000       1.86690000       0.96650000
H       -1.30830000      -1.71690000      -0.08970000
H       -2.20930000      -0.26710000       0.39850000
H       -1.17370000      -0.79360000      -2.15900000
H        1.34320000       0.08080000      -1.60350000
H        3.64430000      -0.83780000      -0.34810000
H        0.28190000      -1.53900000       1.61450000
H        1.95680000       0.24060000       2.49280000
