18
Properties=species:S:1:pos:R:3 gdb_68894=T pbc="F F F"
C        0.03860000       1.57810000       0.07780000
C       -0.06510000       0.07260000       0.13380000
C        1.14540000      -0.77990000      -0.25490000
C        0.68250000      -0.71700000       1.17550000
O        1.44780000      -0.01200000       2.11200000
C       -0.07980000      -1.86930000       1.80210000
O       -1.07650000      -2.43320000       0.94270000
C       -1.71500000      -1.57370000       0.10700000
N       -1.34790000      -0.43030000      -0.28680000
H        1.01580000       1.91700000       0.42580000
H       -0.12120000       1.92620000      -0.94720000
H       -0.72750000       2.03620000       0.71120000
H        0.96550000      -1.67960000      -0.83410000
H        2.06160000      -0.24910000      -0.49340000
H        2.29470000      -0.46180000       2.20820000
H        0.58170000      -2.69810000       2.07740000
H       -0.56310000      -1.49670000       2.71430000
H       -2.64350000      -2.01680000      -0.24680000
