19
Properties=species:S:1:pos:R:3 gdb_51642=T pbc="F F F"
N       -0.17790000       1.30640000       0.16850000
C       -0.08970000       0.05490000       0.02920000
O       -1.19010000      -0.71510000       0.10210000
C       -1.02410000      -2.13010000       0.06020000
C       -1.06230000      -2.78450000       1.46530000
C       -1.69540000      -4.14830000       1.22540000
N       -3.16710000      -4.08550000       1.11910000
C       -2.35460000      -4.14740000      -0.11280000
C       -2.15870000      -2.78390000      -0.76140000
H        0.74080000       1.73100000       0.06160000
H        0.83000000      -0.51550000      -0.16830000
H       -0.06010000      -2.35920000      -0.41460000
H       -0.06250000      -2.85880000       1.90220000
H       -1.68440000      -2.17970000       2.13100000
H       -1.23790000      -5.04150000       1.63780000
H       -3.55700000      -5.00610000       1.31070000
H       -2.40360000      -5.03990000      -0.72750000
H       -3.06530000      -2.17920000      -0.67400000
H       -1.89640000      -2.85730000      -1.81990000
