13
Properties=species:S:1:pos:R:3 gdb_20701=T pbc="F F F"
C       -0.05360000       1.47010000       0.04300000
C        0.00170000      -0.02850000       0.00250000
N        0.03340000      -0.62220000      -1.21220000
C        0.08170000      -1.93530000      -1.21900000
C        0.09760000      -2.63860000      -0.00160000
O        0.14660000      -3.97940000      -0.00010000
N        0.06500000      -2.00770000       1.15790000
N        0.01600000      -0.67500000       1.16590000
H        0.81590000       1.89710000      -0.46650000
H       -0.94280000       1.83260000      -0.48230000
H       -0.07550000       1.81640000       1.07640000
H        0.10860000      -2.45960000      -2.17100000
H        0.14910000      -4.25450000       0.92940000
