19
Properties=species:S:1:pos:R:3 gdb_67326=T pbc="F F F"
C       -0.10850000       1.44180000       0.03710000
C       -0.05710000      -0.06160000       0.01680000
C        0.83830000      -0.97480000      -0.89980000
C        2.00890000      -0.96370000       0.10160000
C        0.74800000      -1.01290000       0.98580000
C       -0.00360000      -1.95280000      -0.01820000
C       -1.26170000      -1.04990000      -0.09650000
C       -2.23590000      -1.09530000       1.03870000
O       -3.43660000      -1.07590000       0.91550000
H        0.89870000       1.86830000       0.09740000
H       -0.58430000       1.82940000      -0.87010000
H       -0.68020000       1.80860000       0.89620000
H        0.85390000      -0.95610000      -1.99100000
H        2.65060000      -1.85030000       0.11440000
H        2.61530000      -0.05390000       0.14960000
H        0.68290000      -1.03750000       2.07400000
H        0.04180000      -3.04210000      -0.03970000
H       -1.79600000      -1.04200000      -1.05220000
H       -1.77240000      -1.14690000       2.05170000
