20
Properties=species:S:1:pos:R:3 gdb_69164=T pbc="F F F"
C       -0.07970000       1.54260000       0.13080000
C        0.08640000       0.05700000       0.03650000
N       -0.80750000      -0.87700000       0.72870000
C        0.67030000      -0.90930000       1.03790000
C        1.27040000      -1.71050000      -0.08880000
O        2.05690000      -2.61080000      -0.15640000
C        0.66840000      -0.74760000      -1.16690000
C       -0.32520000      -1.34040000      -2.16080000
C        1.82630000      -0.02790000      -1.86700000
H        0.82070000       2.06790000      -0.20090000
H       -0.91460000       1.88360000      -0.49220000
H       -0.28740000       1.84810000       1.16210000
H       -1.23730000      -0.37680000       1.50860000
H        1.02110000      -0.76230000       2.05240000
H       -1.17780000      -1.78160000      -1.64120000
H       -0.69350000      -0.57340000      -2.85230000
H        0.15960000      -2.12010000      -2.75740000
H        2.38030000      -0.73450000      -2.49120000
H        1.45200000       0.77680000      -2.50910000
H        2.53270000       0.40620000      -1.15110000
