18
Properties=species:S:1:pos:R:3 gdb_22098=T pbc="F F F"
C       -0.24730000       1.57930000      -0.04850000
C       -0.02850000       0.09270000      -0.03860000
C        0.01410000      -0.64170000       1.28090000
C        1.37190000      -0.50300000       2.01840000
O        1.69390000       0.84860000       2.34140000
C        1.39750000      -1.35340000       3.21120000
C        1.37720000      -2.02150000       4.21040000
N        0.13570000      -0.65100000      -1.06670000
O        0.11370000       0.06550000      -2.27270000
H        0.54880000       2.06850000       0.52010000
H       -0.27470000       1.97230000      -1.06310000
H       -1.19270000       1.81880000       0.45320000
H       -0.77930000      -0.27820000       1.94590000
H       -0.16100000      -1.70490000       1.09830000
H        2.16110000      -0.82240000       1.32810000
H        1.17120000       1.09440000       3.11300000
H        1.38130000      -2.62040000       5.08770000
H        0.22590000      -0.63640000      -2.92190000
