13
Properties=species:S:1:pos:R:3 gdb_43522=T pbc="F F F"
N       -0.00760000       1.24350000       0.26560000
C        0.01140000       0.00880000       0.06550000
O        1.13700000      -0.74260000      -0.20700000
C        0.86420000      -2.10310000      -0.24000000
O        1.70230000      -2.90270000      -0.50080000
C       -0.59540000      -2.32010000       0.12360000
C       -1.21220000      -0.91030000       0.03690000
C       -2.19190000      -0.60890000       1.07410000
N       -2.97890000      -0.41820000       1.89690000
H        0.92620000       1.65280000       0.21630000
H       -1.05120000      -3.05190000      -0.54300000
H       -0.63800000      -2.72070000       1.14060000
H       -1.69520000      -0.77140000      -0.93780000
