14
Properties=species:S:1:pos:R:3 gdb_124092=T pbc="F F F"
C        0.00220000       1.49350000      -0.14290000
O        1.41050000       1.55640000       0.14820000
C        1.45220000       0.16920000       0.53040000
C        0.00870000      -0.04290000       0.02140000
N       -0.95010000      -0.62830000       0.93500000
N       -1.15380000      -0.21910000       2.17820000
N       -2.08130000      -0.99750000       2.64480000
N       -2.43930000      -1.87630000       1.68750000
N       -1.73730000      -1.64980000       0.62130000
H       -0.60560000       2.01200000       0.60720000
H       -0.23540000       1.86840000      -1.14330000
H        2.23370000      -0.38670000       0.00330000
H        1.55950000       0.03450000       1.61260000
H       -0.07780000      -0.60810000      -0.90400000
