17
Properties=species:S:1:pos:R:3 gdb_90542=T pbc="F F F"
O       -0.24080000       1.42000000       0.78420000
C        0.04770000       0.18930000       0.16040000
C        0.35030000      -1.02350000       1.09190000
N       -0.91230000      -1.71550000       0.67780000
C       -2.08280000      -1.32090000       1.53680000
C       -2.53030000      -0.24220000       0.49980000
C       -1.23550000      -0.56730000      -0.26450000
C       -3.01940000      -2.41390000       1.78660000
N       -3.78040000      -3.26170000       1.98200000
H        0.58780000       1.82870000       1.05410000
H        0.77210000       0.31640000      -0.65410000
H        1.23180000      -1.60920000       0.81510000
H        0.40480000      -0.77720000       2.15780000
H       -1.78300000      -0.89870000       2.50250000
H       -3.43700000      -0.51030000      -0.04230000
H       -2.61420000       0.77120000       0.88940000
H       -1.32430000      -0.80240000      -1.32700000
