21
Properties=species:S:1:pos:R:3 gdb_107939=T pbc="F F F"
C       -0.10050000       1.49590000       0.10870000
C       -0.02910000      -0.03510000       0.04430000
C        0.78940000      -0.61510000       1.15990000
C        2.31640000      -0.37280000       1.35510000
C        2.26670000      -1.60960000       2.24750000
C        1.00960000      -2.12970000       1.54790000
C        0.87860000      -1.55750000       2.91780000
C        0.51750000      -2.13780000       4.24200000
O        0.25570000      -0.33960000       2.49790000
H        0.89220000       1.94470000       0.00010000
H       -0.73600000       1.89030000      -0.68930000
H       -0.51260000       1.81950000       1.06830000
H       -1.03860000      -0.45970000       0.09600000
H        0.40450000      -0.35890000      -0.90990000
H        2.87580000      -0.56300000       0.43450000
H        2.60620000       0.58830000       1.79160000
H        3.08710000      -2.18710000       2.65550000
H        0.74930000      -3.07640000       1.09400000
H        1.04060000      -3.08660000       4.39500000
H        0.80020000      -1.45830000       5.05330000
H       -0.55940000      -2.32210000       4.30880000
