19
Properties=species:S:1:pos:R:3 gdb_82367=T pbc="F F F"
O        0.42380000       0.82500000       0.89860000
C       -0.03630000      -0.32100000       0.19350000
C       -1.48750000      -0.25320000      -0.23840000
C       -1.83160000       0.68060000      -1.38450000
C       -1.61740000      -0.78660000      -1.64260000
C       -0.23710000      -1.20360000      -2.14050000
C        0.77580000      -0.62950000      -1.12590000
C        1.52660000       0.60200000      -1.59940000
O        1.28940000       1.21670000      -2.61050000
H       -0.04770000       1.58710000       0.54360000
H        0.09690000      -1.15500000       0.89030000
H       -2.24380000      -0.44070000       0.51540000
H       -2.85040000       1.05070000      -1.41300000
H       -1.09510000       1.38100000      -1.76420000
H       -2.47060000      -1.39080000      -1.92910000
H       -0.16870000      -2.29590000      -2.15950000
H       -0.02910000      -0.83800000      -3.15040000
H        1.55860000      -1.35900000      -0.88410000
H        2.35110000       0.91410000      -0.92600000
