23
Properties=species:S:1:pos:R:3 gdb_122642=T pbc="F F F"
C        0.09680000       1.26740000      -0.18210000
O        0.03020000      -0.13540000      -0.22780000
C       -1.26910000      -0.63240000       0.01280000
C       -1.22800000      -2.15370000      -0.04870000
C       -2.60910000      -2.77680000       0.15930000
C       -3.52840000      -2.76080000      -1.10320000
C       -3.11360000      -4.22930000      -1.39410000
C       -2.62910000      -4.32810000       0.07710000
O       -1.39650000      -4.94630000       0.36170000
H        1.13250000       1.55480000      -0.38060000
H       -0.55220000       1.73520000      -0.94060000
H       -0.19720000       1.66120000       0.80460000
H       -1.62920000      -0.29930000       1.00280000
H       -1.97510000      -0.22740000      -0.73380000
H       -0.80700000      -2.45510000      -1.01450000
H       -0.53780000      -2.52260000       0.71620000
H       -3.05760000      -2.36830000       1.07130000
H       -4.58710000      -2.66800000      -0.84810000
H       -3.29290000      -2.02090000      -1.87190000
H       -3.88540000      -4.92730000      -1.72870000
H       -2.26320000      -4.28350000      -2.07910000
H       -3.42740000      -4.73040000       0.71840000
H       -1.49880000      -5.89620000       0.24670000
