14
Properties=species:S:1:pos:R:3 gdb_20714=T pbc="F F F"
C       -0.00140000       1.49450000      -0.08970000
C        0.00240000       0.00460000       0.04820000
N       -0.06130000      -0.77790000      -1.03230000
N       -0.03780000      -2.03130000      -0.55670000
C        0.03960000      -2.08870000       0.80530000
C        0.06750000      -0.76810000       1.22830000
C        0.07630000      -3.30880000       1.51080000
C        0.10690000      -4.35930000       2.09900000
H        0.90630000       1.93740000       0.33430000
H       -0.05850000       1.76910000      -1.14490000
H       -0.85510000       1.94180000       0.43070000
H       -0.07610000      -2.80960000      -1.19320000
H        0.12660000      -0.42660000       2.24860000
H        0.13430000      -5.28140000       2.62500000
