11
Properties=species:S:1:pos:R:3 gdb_130774=T pbc="F F F"
O       -0.04310000      -0.05020000       0.00410000
C        0.01350000       1.13990000       0.00890000
O       -1.21950000       1.83300000       0.02960000
N       -1.30760000       3.19930000       0.03750000
C       -0.19700000       3.84610000       0.02500000
C        1.09210000       3.17640000       0.00320000
N        1.18900000       1.88350000      -0.00420000
C        2.26690000       3.98310000      -0.00880000
C        3.22400000       4.71220000      -0.01820000
H       -0.27430000       4.92700000       0.03150000
H        4.08450000       5.33700000      -0.02730000
