16
Properties=species:S:1:pos:R:3 gdb_124210=T pbc="F F F"
C        0.43180000      -0.53450000       1.33340000
C        0.07940000       0.07510000       0.00110000
N        0.00770000       1.34520000      -0.09330000
N       -0.15180000      -0.78990000      -1.06810000
C       -0.12940000      -2.16220000      -1.18850000
N       -0.39050000      -2.76300000      -2.33870000
C       -0.26220000      -4.08210000      -2.02220000
N        0.05650000      -4.34310000      -0.77180000
N        0.14050000      -3.08450000      -0.23790000
H       -0.37170000      -1.18200000       1.70180000
H        1.35830000      -1.11660000       1.27400000
H        0.57660000       0.27790000       2.04320000
H       -0.23740000       1.64830000      -1.03850000
H       -0.38600000      -0.35380000      -1.94920000
H       -0.41030000      -4.87110000      -2.74420000
H        0.37480000      -2.97140000       0.73120000
