18
Properties=species:S:1:pos:R:3 gdb_66475=T pbc="F F F"
C       -0.02190000       1.46900000       0.04340000
C        0.03020000      -0.03040000      -0.03720000
C        1.11810000      -0.80420000      -0.81660000
C        0.80770000      -1.90320000       0.20970000
N        0.38470000      -0.83920000       1.24600000
C       -1.02450000      -1.40780000       1.28990000
C       -1.26600000      -0.85810000      -0.09580000
C       -0.68430000      -2.26180000       0.09980000
O       -1.30260000      -3.35860000      -0.45410000
H        0.95510000       1.87620000       0.32090000
H       -0.31370000       1.89910000      -0.92180000
H       -0.75280000       1.79210000       0.79220000
H        0.95670000      -1.01720000      -1.87620000
H        2.10750000      -0.36560000      -0.65800000
H        1.53030000      -2.66140000       0.51560000
H       -1.64450000      -1.52230000       2.17010000
H       -2.19470000      -0.69680000      -0.62880000
H       -1.15200000      -4.11550000       0.12310000
