12
Properties=species:S:1:pos:R:3 gdb_7025=T pbc="F F F"
O       -0.44960000       0.11590000       0.00670000
C       -0.12640000       1.26750000       0.00880000
N        1.18350000       1.76140000      -0.00070000
C        2.36960000       1.01890000      -0.01480000
O        2.42880000      -0.17660000      -0.02180000
C        3.60910000       1.94010000      -0.02110000
C        4.86220000       1.19800000      -0.03790000
N        5.87500000       0.64510000      -0.05130000
H       -0.84600000       2.11080000       0.01960000
H        1.26500000       2.76830000       0.00350000
H        3.56730000       2.60010000      -0.89650000
H        3.58430000       2.58880000       0.86330000
