14
Properties=species:S:1:pos:R:3 gdb_26920=T pbc="F F F"
O       -0.22390000       1.21990000      -0.19160000
C       -0.13600000      -0.12480000      -0.08470000
C       -1.26540000      -0.88620000       0.00310000
O       -2.53870000      -0.37980000       0.02260000
C       -1.05840000      -2.28720000       0.09360000
N        0.09830000      -2.88960000       0.10250000
C        1.25610000      -2.13190000       0.00870000
N        2.46120000      -2.55900000      -0.01560000
N        1.07990000      -0.72900000      -0.07560000
H        0.60160000       1.64460000       0.06810000
H       -2.48320000       0.58210000       0.00310000
H       -1.94800000      -2.91300000       0.17000000
H        2.44420000      -3.57470000       0.04750000
H        1.93000000      -0.20250000      -0.22000000
