17
Properties=species:S:1:pos:R:3 gdb_49639=T pbc="F F F"
O        0.19880000      -0.17140000       0.26580000
C        0.09120000       1.03100000       0.25080000
C        1.24660000       1.97960000       0.08430000
C        1.36070000       2.85280000      -1.21460000
C        0.06440000       3.63040000      -1.57850000
C        0.33430000       4.59410000      -0.40370000
O        0.00600000       3.98670000       0.87000000
C        1.27200000       3.29500000       0.91690000
C        1.79910000       4.07390000      -0.31620000
H       -0.89920000       1.51970000       0.36490000
H        2.18150000       1.42830000       0.22510000
H        1.94920000       2.43060000      -2.02750000
H        0.20530000       4.15310000      -2.53070000
H       -0.89510000       3.10820000      -1.59680000
H        0.00080000       5.63160000      -0.45720000
H        1.69570000       3.27680000       1.92240000
H        2.71630000       4.65060000      -0.39060000
