13
Properties=species:S:1:pos:R:3 gdb_130868=T pbc="F F F"
O       -0.20010000       0.01780000       0.00190000
C       -0.03250000       1.20950000       0.00900000
C        1.27230000       1.91410000       0.00030000
C        1.28150000       3.28040000       0.01130000
C        2.49920000       4.00780000       0.00400000
N        3.66450000       3.41290000      -0.01340000
N        3.65110000       2.08720000      -0.02400000
C        2.55070000       1.19350000      -0.01940000
O        2.75510000       0.00100000      -0.03160000
H       -0.89480000       1.91740000       0.02340000
H        0.33820000       3.82200000       0.02580000
H        2.52030000       5.09050000       0.01260000
H        4.56230000       1.64370000      -0.03750000
