12
Properties=species:S:1:pos:R:3 gdb_2635=T pbc="F F F"
O        0.12260000       0.03360000      -0.11950000
C        0.15130000       1.22100000      -0.20410000
O        0.89090000       1.99160000       0.62700000
C        0.88210000       3.40120000       0.42640000
C        2.28360000       3.84680000      -0.02210000
C        2.35910000       5.29640000      -0.17680000
N        2.38890000       6.44520000      -0.29360000
H       -0.41270000       1.81650000      -0.94850000
H        0.13070000       3.68580000      -0.31950000
H        0.61750000       3.87080000       1.37700000
H        3.02210000       3.51830000       0.71630000
H        2.54050000       3.36690000      -0.97250000
