16
Properties=species:S:1:pos:R:3 gdb_131504=T pbc="F F F"
O        0.39000000       1.07210000      -0.62720000
C       -0.01350000      -0.08340000       0.07640000
C        0.50740000      -0.14820000       1.56040000
C       -0.68900000      -0.73590000       2.22430000
C       -1.81960000      -0.73640000       1.47770000
C       -1.57500000      -0.12530000       0.13010000
C       -2.77870000      -1.30000000       2.35530000
N       -2.25030000      -1.61120000       3.52070000
O       -0.89150000      -1.24120000       3.43940000
H        1.33220000       1.00650000      -0.81160000
H        0.33510000      -0.99020000      -0.43870000
H        1.42090000      -0.74150000       1.66460000
H        0.71880000       0.86570000       1.92260000
H       -1.95970000       0.89930000       0.05970000
H       -1.98740000      -0.68640000      -0.71300000
H       -3.82970000      -1.50460000       2.20450000
