16
Properties=species:S:1:pos:R:3 gdb_19372=T pbc="F F F"
O        0.15130000       1.37100000       0.11980000
C        0.05220000      -0.03470000      -0.07290000
C       -1.36430000      -0.51710000      -0.06120000
C       -2.11510000      -0.95720000       1.17380000
C       -1.91120000      -1.93690000       0.04730000
C       -2.86400000      -1.62800000      -1.15170000
O       -3.70340000      -0.51340000      -0.81960000
C       -2.35740000      -0.26460000      -1.24750000
H       -0.32470000       1.58210000       0.93020000
H        0.51910000      -0.22420000      -1.04670000
H        0.63460000      -0.59130000       0.67940000
H       -1.48960000      -1.13750000       2.04340000
H       -3.10450000      -0.57130000       1.38350000
H       -1.35590000      -2.85950000       0.15380000
H       -3.22340000      -2.32340000      -1.90010000
H       -2.20560000       0.40390000      -2.08620000
