16
Properties=species:S:1:pos:R:3 gdb_25807=T pbc="F F F"
C        0.18600000       1.43040000       0.02130000
C       -0.03780000      -0.03750000      -0.03550000
C       -1.15600000      -0.81320000      -0.14030000
C       -0.71650000      -2.17030000      -0.14380000
C        0.64080000      -2.13430000      -0.04110000
O        1.06650000      -0.83160000       0.02610000
C        1.63370000      -3.22130000       0.00580000
N        2.93280000      -2.81210000       0.09920000
O        1.29750000      -4.39240000      -0.04440000
H        0.81600000       1.77220000      -0.80780000
H       -0.77060000       1.95340000      -0.03730000
H        0.68200000       1.72460000       0.95320000
H       -2.17060000      -0.45280000      -0.20720000
H       -1.31070000      -3.06690000      -0.21220000
H        3.17320000      -1.84130000       0.19420000
H        3.64600000      -3.51600000       0.18260000
