17
Properties=species:S:1:pos:R:3 gdb_45278=T pbc="F F F"
O       -0.05370000      -0.01650000      -0.04930000
C       -0.03040000       1.18040000      -0.00550000
C       -1.12570000       2.27430000       0.07620000
C       -0.04300000       3.35510000      -0.23440000
C        0.53680000       4.11650000       0.98620000
C        1.56970000       2.98360000       1.17170000
O        2.82910000       3.21420000       0.51100000
C        2.48630000       2.33170000      -0.59020000
C        1.05120000       2.22420000      -0.10530000
H       -1.89250000       2.15860000      -0.69500000
H       -1.62240000       2.35460000       1.04760000
H       -0.19280000       3.89620000      -1.16870000
H        1.02020000       5.06650000       0.74830000
H       -0.15940000       4.26850000       1.81640000
H        1.69500000       2.51480000       2.15230000
H        2.64840000       2.80180000      -1.56660000
H        3.04710000       1.38960000      -0.53880000
