17
Properties=species:S:1:pos:R:3 gdb_33534=T pbc="F F F"
C        0.25020000      -1.33560000      -0.16270000
C        0.12200000      -0.14330000      -0.07470000
C       -0.04360000       1.29670000       0.01020000
C       -0.26540000       1.87090000       1.44310000
O        0.99860000       2.55270000       1.42400000
C        1.28510000       2.11740000       0.08740000
C       -1.00860000       1.76990000      -1.06460000
C       -2.44370000       1.94040000      -0.82650000
O       -1.56520000       3.07040000      -0.90450000
H        0.36850000      -2.38880000      -0.23050000
H       -1.10300000       2.57220000       1.51860000
H       -0.32310000       1.11870000       2.23610000
H        2.20270000       1.52320000       0.02670000
H        1.33260000       2.95450000      -0.61980000
H       -0.68080000       1.54020000      -2.07950000
H       -3.14390000       1.83630000      -1.65300000
H       -2.85570000       1.73820000       0.16090000
