19
Properties=species:S:1:pos:R:3 gdb_117090=T pbc="F F F"
C        0.01180000       1.48020000      -0.13020000
C       -0.03170000      -0.03420000      -0.07970000
O        0.62740000      -0.52540000      -1.26580000
C        0.68990000      -1.84650000      -1.38540000
O        0.23290000      -2.63540000      -0.58580000
C        1.40750000      -2.30310000      -2.63990000
N        1.31380000      -3.66400000      -2.79820000
N        1.97700000      -1.45260000      -3.40110000
C        2.64340000      -1.97220000      -4.58040000
H        1.04420000       1.83890000      -0.15480000
H       -0.50340000       1.85490000      -1.01880000
H       -0.47900000       1.89390000       0.75580000
H        0.48320000      -0.43330000       0.80000000
H       -1.05660000      -0.41820000      -0.06180000
H        0.98400000      -4.16830000      -1.98890000
H        1.97980000      -4.12950000      -3.39060000
H        3.05210000      -1.14500000      -5.16520000
H        3.48200000      -2.64160000      -4.32440000
H        1.95810000      -2.54290000      -5.22690000
