13
Properties=species:S:1:pos:R:3 gdb_1046=T pbc="F F F"
C       -0.06920000       1.44210000       0.13590000
N        0.32150000       0.05640000      -0.11910000
C        0.70530000      -0.73120000       0.94490000
C        0.56240000      -2.04600000       1.27230000
N        1.27900000      -2.29700000       2.44070000
C        1.78950000      -1.16080000       2.76060000
O        1.48960000      -0.14480000       1.89330000
H        0.76100000       1.96950000       0.60900000
H       -0.27940000       1.92540000      -0.82060000
H       -0.95310000       1.53620000       0.78400000
H       -0.31920000      -0.43480000      -0.72610000
H        0.00960000      -2.81670000       0.76100000
H        2.39960000      -0.89910000       3.60940000
