16
Properties=species:S:1:pos:R:3 gdb_86524=T pbc="F F F"
O        0.26150000       1.24710000      -0.48640000
C        0.02730000      -0.03310000       0.03260000
C        0.09340000      -0.19830000       1.58750000
N       -1.28480000      -0.70450000       1.53110000
C       -1.48350000      -0.35890000       0.12060000
C       -2.25070000      -0.74880000       2.48630000
N       -3.49890000      -0.75780000       2.19410000
C       -1.73890000      -0.81660000       3.84860000
N       -1.37390000      -0.86040000       4.94510000
H        1.21100000       1.37770000      -0.57490000
H        0.60350000      -0.80200000      -0.49470000
H        0.82090000      -0.90960000       1.98960000
H        0.19190000       0.76690000       2.09800000
H       -2.11120000       0.52810000      -0.01910000
H       -1.86390000      -1.17630000      -0.49690000
H       -4.07190000      -0.84920000       3.02920000
