11
Properties=species:S:1:pos:R:3 gdb_3773=T pbc="F F F"
C        0.06110000       1.39760000       0.00420000
N       -0.00440000      -0.04670000       0.02290000
N       -0.15890000      -0.79210000      -1.08200000
N       -0.18280000      -2.00500000      -0.79140000
O       -0.03290000      -2.12320000       0.62930000
C        0.08080000      -0.86100000       1.14000000
N        0.22940000      -0.46430000       2.33050000
H        1.02180000       1.73350000       0.40310000
H       -0.05120000       1.72430000      -1.02900000
H       -0.73970000       1.81420000       0.62050000
H        0.26470000      -1.24360000       2.98210000
