18
Properties=species:S:1:pos:R:3 gdb_108659=T pbc="F F F"
N       -0.18100000       1.25550000       0.00170000
C       -0.13360000      -0.09810000       0.00120000
C       -1.20270000      -0.93950000       0.09470000
C       -2.63700000      -0.52980000       0.22860000
O       -2.81730000       0.60800000       1.09110000
C       -0.75520000      -2.32380000       0.05890000
O       -1.44260000      -3.32370000       0.15070000
C        0.77800000      -2.32130000      -0.10940000
C        1.17890000      -0.83510000      -0.14060000
H        0.66780000       1.77960000       0.13430000
H       -1.04240000       1.67400000       0.32680000
H       -3.05530000      -0.21100000      -0.73360000
H       -3.22510000      -1.39100000       0.56990000
H       -2.55390000       0.33280000       1.97590000
H        1.23670000      -2.86880000       0.71880000
H        1.04450000      -2.85310000      -1.02720000
H        1.67630000      -0.54680000      -1.07440000
H        1.86400000      -0.56350000       0.67220000
