19
Properties=species:S:1:pos:R:3 gdb_86052=T pbc="F F F"
O       -0.94860000       1.08390000       0.61820000
C       -0.10840000       0.09040000       0.04440000
C        0.55080000      -0.85050000       1.09120000
C       -0.62070000      -1.84840000       0.90250000
O       -0.17690000      -3.17730000       0.77970000
C       -1.70540000      -1.71780000       1.97850000
C       -2.91360000      -2.58770000       1.74130000
O       -2.97850000      -3.47050000       0.91550000
C       -0.98100000      -1.09420000      -0.42260000
H       -0.38650000       1.71130000       1.08490000
H        0.56140000       0.53440000      -0.70170000
H        1.47570000      -1.29760000       0.71880000
H        0.71970000      -0.44030000       2.09160000
H       -0.96340000      -3.70280000       0.57370000
H       -1.30110000      -2.00360000       2.96240000
H       -2.03400000      -0.67590000       2.07450000
H       -3.78360000      -2.38000000       2.40250000
H       -2.02860000      -0.86260000      -0.62580000
H       -0.54260000      -1.61370000      -1.27690000
