16
Properties=species:S:1:pos:R:3 gdb_28634=T pbc="F F F"
C       -0.01950000       1.53160000       0.00790000
C        0.00020000       0.02620000       0.01310000
C       -0.08520000      -0.70930000      -1.17330000
N       -0.07420000      -2.03770000      -1.25130000
C        0.02670000      -2.72830000      -0.10320000
C        0.11830000      -2.09450000       1.14470000
C        0.10430000      -0.70990000       1.19550000
C        0.03870000      -4.15640000      -0.18540000
C        0.05170000      -5.35930000      -0.21900000
H        0.89480000       1.94440000       0.44860000
H       -0.10670000       1.92230000      -1.00930000
H       -0.86140000       1.92190000       0.59060000
H       -0.16810000      -0.18250000      -2.12280000
H        0.19810000      -2.69100000       2.04580000
H        0.17420000      -0.19950000       2.15190000
H        0.06170000      -6.42010000      -0.26700000
