21
Properties=species:S:1:pos:R:3 gdb_33167=T pbc="F F F"
C       -0.07240000       1.55450000      -0.01120000
C       -0.02130000       0.02500000      -0.01430000
C        0.74830000      -0.52950000       1.19210000
N        0.80480000      -1.98150000       1.22730000
C       -0.08770000      -2.80240000       1.85990000
N        0.18190000      -4.07300000       1.67780000
C        1.30400000      -4.08220000       0.88310000
C        1.71510000      -2.80690000       0.58500000
C        2.87090000      -2.30250000      -0.21080000
H        0.93380000       1.98720000      -0.04240000
H       -0.62260000       1.93130000      -0.87790000
H       -0.56840000       1.93510000       0.88850000
H       -1.03570000      -0.39000000      -0.00330000
H        0.44910000      -0.33410000      -0.93690000
H        1.77170000      -0.13960000       1.19810000
H        0.27680000      -0.19270000       2.12160000
H       -0.90550000      -2.40270000       2.44290000
H        1.76700000      -5.00700000       0.57060000
H        2.56240000      -1.71470000      -1.08410000
H        3.54520000      -1.67280000       0.38340000
H        3.45430000      -3.15080000      -0.57650000
