21
Properties=species:S:1:pos:R:3 gdb_110550=T pbc="F F F"
O        0.34580000       0.45750000      -1.03970000
C       -0.10040000       0.44530000       0.31250000
C       -1.46500000      -0.22750000       0.32940000
C       -1.45460000      -1.72240000       0.01600000
C       -1.37130000      -2.46210000       1.34090000
C       -1.33550000      -1.41240000       2.44690000
C       -2.17200000      -0.33820000       1.70760000
C       -3.43410000      -1.15150000       1.32610000
C       -2.70820000      -2.30560000       0.63780000
H        1.23280000       0.82790000      -1.05920000
H        0.61080000      -0.09830000       0.95110000
H       -0.18660000       1.47110000       0.70810000
H       -2.10100000       0.31690000      -0.38020000
H       -1.01980000      -2.11470000      -0.89260000
H       -0.88220000      -3.42340000       1.42700000
H       -1.82580000      -1.74930000       3.36700000
H       -0.32520000      -1.08120000       2.70410000
H       -2.34350000       0.59730000       2.24050000
H       -4.00990000      -1.46810000       2.20260000
H       -4.10030000      -0.60150000       0.65320000
H       -3.22760000      -3.14830000       0.20070000
