17
Properties=species:S:1:pos:R:3 gdb_76000=T pbc="F F F"
C       -0.13080000       1.54150000      -0.06130000
C       -0.03620000       0.02590000      -0.04670000
C       -1.14770000      -0.65860000       0.55260000
C       -2.08520000      -1.23650000       1.03740000
C        0.68890000      -0.71170000      -1.18610000
N        1.31530000      -0.07860000      -2.30060000
C        1.34200000      -0.65100000       0.17840000
C        2.49740000       0.17770000       0.36230000
N        3.42310000       0.86280000       0.48260000
H        0.71200000       1.99120000      -0.58920000
H       -1.05460000       1.84940000      -0.55970000
H       -0.14560000       1.93990000       0.95670000
H       -2.91340000      -1.74140000       1.46960000
H        0.25750000      -1.67990000      -1.42480000
H        0.64100000       0.34630000      -2.92700000
H        1.99560000       0.62100000      -2.02740000
H        1.34160000      -1.55810000       0.77120000
