16
Properties=species:S:1:pos:R:3 gdb_4543=T pbc="F F F"
C       -0.06910000       1.48630000       0.01540000
N        0.00560000       0.04110000      -0.01970000
C       -0.03900000      -0.78410000      -1.14460000
C        0.05840000      -2.06500000      -0.68240000
C        0.06350000      -3.34030000      -1.45760000
N        0.16220000      -2.06340000       0.70430000
C        0.12500000      -0.80090000       1.03640000
O        0.19360000      -0.30160000       2.28560000
H        0.74710000       1.93250000      -0.56200000
H       -1.02210000       1.83910000      -0.39250000
H        0.01280000       1.81500000       1.05150000
H       -0.13270000      -0.37290000      -2.13610000
H        0.98880000      -3.90260000      -1.28880000
H       -0.76510000      -3.99060000      -1.15510000
H       -0.02800000      -3.14750000      -2.53010000
H        0.27620000      -1.06530000       2.87000000
