26
Properties=species:S:1:pos:R:3 gdb_6799=T pbc="F F F"
C        0.03150000       1.63890000      -0.05100000
C       -0.00160000       0.10860000      -0.01360000
C        0.72010000      -0.48210000       1.20230000
C        0.69400000      -2.01410000       1.24680000
C        1.41720000      -2.59290000       2.46860000
C        1.51000000      -4.12930000       2.51490000
C        2.42520000      -4.57740000       3.66280000
C        0.13330000      -4.79910000       2.63240000
H        1.06140000       2.01200000      -0.08370000
H       -0.49160000       2.03030000      -0.92930000
H       -0.44480000       2.06710000       0.83820000
H       -1.04450000      -0.23570000      -0.01760000
H        0.45080000      -0.29020000      -0.93140000
H        1.76320000      -0.13530000       1.20800000
H        0.26680000      -0.08390000       2.12120000
H       -0.35000000      -2.35180000       1.23110000
H        1.15500000      -2.41060000       0.33090000
H        2.43600000      -2.18220000       2.49810000
H        0.92440000      -2.23810000       3.38590000
H        1.96750000      -4.46290000       1.57150000
H        2.01820000      -4.26520000       4.63230000
H        2.53240000      -5.66710000       3.68510000
H        3.42610000      -4.14290000       3.56850000
H       -0.37790000      -4.48000000       3.54930000
H       -0.51680000      -4.55640000       1.78700000
H        0.22990000      -5.88940000       2.67130000
