19
Properties=species:S:1:pos:R:3 gdb_80724=T pbc="F F F"
O        0.07970000       1.38880000       0.18800000
C       -0.03380000      -0.00710000       0.10100000
C       -0.44860000      -0.78960000       1.29150000
C       -1.53700000      -0.04870000       2.08030000
C       -2.46470000      -0.09630000       0.82420000
C       -3.09500000       1.20610000       0.30080000
C       -4.16160000       1.69460000       1.16700000
C       -5.03420000       2.06950000       1.90470000
C       -1.33710000      -0.75240000       0.01380000
H       -0.03000000       1.75030000      -0.69800000
H        0.76440000      -0.47830000      -0.47440000
H        0.15590000      -1.60100000       1.67900000
H       -1.93310000      -0.62260000       2.91910000
H       -1.25540000       0.94710000       2.43030000
H       -3.26220000      -0.82500000       0.99300000
H       -2.31520000       1.96860000       0.20930000
H       -3.49310000       1.03450000      -0.70870000
H       -5.80560000       2.41370000       2.54760000
H       -1.49130000      -1.52020000      -0.73740000
