21
Properties=species:S:1:pos:R:3 gdb_79741=T pbc="F F F"
C       -0.24110000       1.52900000       0.20710000
C        0.04680000       0.05550000      -0.01860000
C        0.63760000      -0.66150000      -1.24290000
C        1.47940000      -0.01490000      -2.32020000
C        1.80210000       1.46090000      -2.31260000
C        2.76080000       0.48590000      -1.67580000
C        2.68670000       0.17400000      -0.17610000
C        1.38890000      -0.62460000       0.06610000
O        1.50810000      -1.79010000       0.83590000
H       -0.91350000       1.93860000      -0.55400000
H       -0.73190000       1.65880000       1.17790000
H        0.66080000       2.14440000       0.22550000
H       -0.72420000      -0.57860000       0.41660000
H        0.11520000      -1.56880000      -1.52500000
H        1.49900000      -0.52570000      -3.27630000
H        2.11660000       1.88610000      -3.26080000
H        1.22660000       2.14560000      -1.70760000
H        3.72000000       0.34500000      -2.16210000
H        3.51440000      -0.48360000       0.10410000
H        2.76400000       1.07110000       0.45060000
H        1.40470000      -1.54750000       1.76230000
