15
Properties=species:S:1:pos:R:3 gdb_133826=T pbc="F F F"
C       10.38180000      -1.35060000      -0.16780000
C        9.14880000      -0.53050000       0.14060000
C        7.76950000      -1.25670000       0.11140000
N        8.29210000      -0.72120000       1.35370000
C        7.75970000       0.51420000       1.68260000
N        8.56600000       1.50300000       1.12070000
C        9.20190000       0.93180000       0.12230000
C        6.60940000      -0.71630000      -0.53630000
C        5.62860000      -0.33520000      -1.11650000
H       10.24980000      -2.38110000       0.17080000
H       11.26310000      -0.94240000       0.33420000
H       10.57640000      -1.36970000      -1.24520000
H        7.86430000      -2.33840000       0.01180000
H        9.77900000       1.51180000      -0.59350000
H        4.76090000       0.02720000      -1.61130000
