19
Properties=species:S:1:pos:R:3 gdb_30102=T pbc="F F F"
C       -0.08120000       1.51370000      -0.24450000
C       -0.05000000       0.03040000       0.02070000
N        1.24420000      -0.64830000      -0.12430000
C        0.63700000      -0.57790000       1.21270000
C        1.36860000       0.19960000       2.23270000
C        2.58940000       0.83920000       2.19440000
C        2.80440000       1.43800000       3.46740000
C        1.71160000       1.14810000       4.24930000
N        0.84720000       0.39550000       3.49220000
H        0.78330000       2.00310000       0.20920000
H       -0.06630000       1.71360000      -1.32110000
H       -0.99110000       1.96140000       0.17040000
H       -0.92770000      -0.51560000      -0.32630000
H        1.13060000      -1.57830000      -0.51630000
H        0.16830000      -1.48760000       1.59240000
H        3.24650000       0.85120000       1.33970000
H        3.66680000       2.00960000       3.77460000
H        1.47670000       1.40380000       5.27000000
H       -0.04680000       0.05630000       3.80190000
