21
Properties=species:S:1:pos:R:3 gdb_64229=T pbc="F F F"
C       -0.06840000       1.57340000      -0.10930000
C       -0.00880000       0.05020000      -0.03670000
O       -1.29570000      -0.51250000      -0.21770000
C        1.15730000      -0.55560000      -0.88040000
C        1.99470000      -0.66730000       0.42190000
C        0.67760000      -0.53770000       1.23030000
C        0.65760000       0.23540000       2.55330000
C        1.41240000      -0.44060000       3.60290000
C        2.04250000      -1.01830000       4.44820000
H        0.91140000       2.03020000       0.06060000
H       -0.40160000       1.88740000      -1.10670000
H       -0.77260000       1.97440000       0.62610000
H       -1.70110000      -0.10280000      -0.98990000
H        0.86860000      -1.53610000      -1.26660000
H        1.55800000       0.05160000      -1.69680000
H        2.58250000      -1.57400000       0.57050000
H        2.65070000       0.19670000       0.56740000
H        0.24840000      -1.53110000       1.39030000
H        1.06830000       1.24260000       2.40710000
H       -0.38210000       0.37030000       2.87960000
H        2.59530000      -1.52020000       5.20280000
