19
Properties=species:S:1:pos:R:3 gdb_98252=T pbc="F F F"
C        0.02920000       1.24490000       0.65030000
O       -0.13510000       0.01460000      -0.06160000
C       -1.15380000      -0.75800000       0.38140000
O       -1.86300000      -0.42800000       1.30510000
N       -1.25400000      -1.92970000      -0.35150000
C       -0.33140000      -2.22470000      -1.45860000
C       -2.23270000      -2.91810000      -0.09930000
C       -3.23280000      -2.71940000       1.01480000
N       -2.19510000      -3.94260000      -0.86170000
H        0.87660000       1.74230000       0.17780000
H       -0.86910000       1.86180000       0.57180000
H        0.23590000       1.05760000       1.70670000
H        0.19590000      -3.15920000      -1.25700000
H       -0.89840000      -2.36270000      -2.38130000
H        0.37250000      -1.40760000      -1.56480000
H       -2.74280000      -2.60600000       1.98310000
H       -3.82760000      -1.81640000       0.86840000
H       -3.89250000      -3.59010000       1.04000000
H       -2.93380000      -4.59290000      -0.60340000
