23
Properties=species:S:1:pos:R:3 gdb_95371=T pbc="F F F"
C       -0.56830000       1.44370000      -0.04600000
C        0.07460000       0.05820000      -0.04750000
C        1.09910000      -0.18040000      -1.16450000
O        1.80550000      -1.35220000      -0.78780000
C        1.89730000      -1.39650000       0.64080000
C        3.29520000      -1.00050000       1.17580000
C        3.01700000      -0.02710000       2.33380000
C        1.78460000       0.75060000       1.84400000
C        0.89680000      -0.33640000       1.19920000
H        0.17660000       2.23870000       0.05790000
H       -1.11130000       1.62080000      -0.98070000
H       -1.28500000       1.54850000       0.77500000
H       -0.71550000      -0.69330000      -0.17100000
H        0.64690000      -0.35820000      -2.14510000
H        1.77820000       0.68550000      -1.25910000
H        1.63440000      -2.41720000       0.93740000
H        3.89580000      -1.86540000       1.46950000
H        3.83320000      -0.49000000       0.36930000
H        2.76890000      -0.58340000       3.24670000
H        3.86920000       0.61700000       2.57000000
H        1.27190000       1.30150000       2.63750000
H        2.10040000       1.48630000       1.09370000
H        0.25470000      -0.77710000       1.96770000
