15
Properties=species:S:1:pos:R:3 gdb_5268=T pbc="F F F"
O        0.11690000       1.42890000       0.11250000
C        0.06220000       0.01420000       0.16660000
C       -1.36320000      -0.52560000      -0.04630000
C       -1.41990000      -2.01630000       0.00040000
C       -1.98380000      -2.84220000       0.91560000
O       -1.75120000      -4.13630000       0.53400000
C       -1.04390000      -4.01910000      -0.61020000
N       -0.81280000      -2.80440000      -0.98190000
H       -0.06440000       1.69630000      -0.79420000
H        0.74110000      -0.45160000      -0.56150000
H        0.41390000      -0.26300000       1.16580000
H       -2.02450000      -0.09640000       0.71280000
H       -1.72540000      -0.18330000      -1.02480000
H       -2.54760000      -2.70210000       1.82160000
H       -0.74910000      -4.93700000      -1.09440000
