19
Properties=species:S:1:pos:R:3 gdb_53404=T pbc="F F F"
C        0.26060000       1.56010000      -0.41240000
C        0.18050000       0.12680000      -0.17100000
C        0.11670000      -1.06100000       0.02280000
C        0.01340000      -2.48660000       0.26340000
C       -0.18840000      -3.00730000       1.72240000
C       -1.19510000      -4.05290000       1.18230000
C       -1.30630000      -3.24930000      -0.15530000
C       -2.52590000      -2.36740000      -0.19120000
O       -3.31480000      -2.33010000      -1.10060000
H        1.17560000       1.82250000      -0.95490000
H       -0.58990000       1.90830000      -1.00860000
H        0.25880000       2.12320000       0.52740000
H        0.85990000      -3.00630000      -0.19760000
H        0.70150000      -3.37420000       2.23750000
H       -0.66850000      -2.25240000       2.34900000
H       -0.74180000      -5.03250000       1.01500000
H       -2.12010000      -4.19280000       1.74680000
H       -1.25710000      -3.81450000      -1.08710000
H       -2.67300000      -1.74010000       0.71800000
