13
Properties=species:S:1:pos:R:3 gdb_129110=T pbc="F F F"
N       -0.06700000       1.23690000       0.00760000
C       -0.02770000      -0.01530000       0.00070000
C       -1.25840000      -0.95270000       0.00260000
C       -0.55270000      -2.26160000      -0.00830000
C        0.78100000      -2.08050000      -0.01480000
O        1.16610000      -0.76190000      -0.01000000
C        1.32930000      -3.37900000      -0.02490000
N        0.35640000      -4.27380000      -0.02400000
O       -0.85580000      -3.55890000      -0.01350000
H        0.87000000       1.64190000       0.00450000
H       -1.87180000      -0.76900000       0.89020000
H       -1.88170000      -0.75960000      -0.87600000
H        2.35330000      -3.71990000      -0.03240000
