20
Properties=species:S:1:pos:R:3 gdb_70058=T pbc="F F F"
C        0.06310000       1.59340000       0.14930000
C        0.12180000       0.09500000      -0.00810000
N       -0.61630000      -0.76610000       0.93760000
C        0.88310000      -0.80680000       0.92730000
C        1.35630000      -1.99400000       0.14470000
C        1.03980000      -1.80470000      -1.13820000
C        0.40240000      -2.52650000      -2.30310000
C       -0.72380000      -1.43230000      -2.17310000
C        0.29230000      -0.51780000      -1.39270000
H        0.86850000       2.08030000      -0.41150000
H       -0.88760000       1.99080000      -0.22590000
H        0.15910000       1.89130000       1.19890000
H       -0.91780000      -0.18300000       1.71780000
H        1.40640000      -0.42400000       1.79840000
H        1.67740000      -2.91930000       0.60840000
H        0.95100000      -2.41530000      -3.24450000
H        0.12710000      -3.57430000      -2.16720000
H       -1.13000000      -1.03370000      -3.10550000
H       -1.52640000      -1.76550000      -1.51400000
H        0.79330000       0.17470000      -2.07990000
