16
Properties=species:S:1:pos:R:3 gdb_10493=T pbc="F F F"
O        0.36520000       1.05780000       0.63900000
C        0.07850000      -0.04530000      -0.19980000
C       -1.37190000      -0.50830000      -0.09710000
C       -2.37570000       0.20270000      -1.00700000
C       -2.25970000       1.65890000      -0.91500000
N       -2.10670000       2.80230000      -0.83210000
C       -1.65080000      -1.91380000       0.29970000
N       -1.88840000      -0.80870000       1.23960000
H       -0.11550000       1.82830000       0.31300000
H        0.33080000       0.16400000      -1.25120000
H        0.73980000      -0.84990000       0.13760000
H       -2.21740000      -0.08810000      -2.05240000
H       -3.39080000      -0.09170000      -0.72650000
H       -2.54910000      -2.41470000      -0.05270000
H       -0.80060000      -2.57280000       0.45510000
H       -1.13650000      -0.72430000       1.91990000
