17
Properties=species:S:1:pos:R:3 gdb_105682=T pbc="F F F"
O        0.54520000       0.67470000       0.79320000
C       -0.03450000       0.29510000      -0.43660000
C       -1.38460000      -0.38980000      -0.21430000
O       -1.92560000      -0.94170000      -1.44790000
C       -1.76730000      -2.29570000      -0.95310000
C       -1.33000000      -1.78420000       0.43710000
O       -0.04000000      -2.14630000       0.89150000
C       -2.40930000       0.56440000       0.38060000
O       -2.94570000       0.41180000       1.44610000
H        0.72270000      -0.15080000       1.26230000
H       -0.18180000       1.20670000      -1.02690000
H        0.60810000      -0.37760000      -1.02110000
H       -2.70390000      -2.86030000      -1.00670000
H       -0.97330000      -2.83300000      -1.48420000
H       -2.08080000      -1.89970000       1.22250000
H       -0.12480000      -2.83560000       1.55580000
H       -2.65720000       1.42020000      -0.28590000
