17
Properties=species:S:1:pos:R:3 gdb_48883=T pbc="F F F"
O       -0.72730000       0.95850000       0.50980000
C        0.31700000       0.84360000      -0.07940000
C        1.41340000       1.87470000      -0.03320000
C        1.73460000       2.53270000       1.30590000
C        2.75780000       3.63610000       0.91210000
C        2.58380000       3.78860000      -0.59950000
C        2.73570000       2.53350000      -1.43730000
O        2.66480000       1.36890000      -0.61020000
C        1.36800000       3.02200000      -1.08550000
H        0.54930000      -0.03200000      -0.72350000
H        0.81660000       2.95040000       1.73000000
H        2.14290000       1.80930000       2.01670000
H        2.55230000       4.57830000       1.42740000
H        3.77890000       3.33790000       1.16600000
H        2.82600000       4.72550000      -1.08990000
H        3.27550000       2.45850000      -2.37360000
H        0.52390000       3.37950000      -1.65760000
