17
Properties=species:S:1:pos:R:3 gdb_2245=T pbc="F F F"
O       -0.06530000       1.40680000      -0.19280000
C       -0.01310000       0.02970000       0.03780000
C       -0.25770000      -0.92160000      -1.10800000
C       -1.28680000      -0.76890000       0.00200000
C       -1.25570000      -1.77450000       1.14240000
C        0.23690000      -1.85600000       1.55110000
C        0.82680000      -0.46960000       1.20690000
H        0.75080000       1.66460000      -0.63490000
H       -0.51640000      -0.45770000      -2.05350000
H        0.31840000      -1.83780000      -1.19530000
H       -2.21980000      -0.27970000      -0.25340000
H       -1.86020000      -1.39270000       1.97400000
H       -1.66270000      -2.75470000       0.87140000
H        0.36790000      -2.11560000       2.60470000
H        0.74350000      -2.63470000       0.97200000
H        1.90010000      -0.51370000       0.98740000
H        0.68960000       0.23440000       2.03620000
