18
Properties=species:S:1:pos:R:3 gdb_107187=T pbc="F F F"
C       -0.21320000       1.44180000      -0.14960000
N        0.12770000       0.03160000      -0.00400000
C        1.47960000      -0.46840000      -0.14270000
C        2.52130000       0.44210000       0.49480000
O        3.09020000      -0.25950000       1.62320000
C        1.81060000       0.39390000       1.78730000
C        1.74480000       1.39780000       2.90280000
O        2.92880000       2.16070000       2.97680000
C        0.74230000      -0.51840000       1.18770000
H        0.52950000       2.14310000       0.25240000
H       -0.34610000       1.65580000      -1.21450000
H       -1.16900000       1.62190000       0.35200000
H        1.67330000      -1.28180000      -0.83200000
H        3.11790000       1.23740000       0.06610000
H        0.91330000       2.09130000       2.73590000
H        1.53920000       0.86730000       3.84860000
H        3.65210000       1.52880000       2.87060000
H        0.28390000      -1.37410000       1.67000000
