19
Properties=species:S:1:pos:R:3 gdb_67050=T pbc="F F F"
O        0.08630000       1.40190000       0.08150000
C        0.04710000       0.03000000       0.02250000
C       -1.05890000      -1.01420000       0.05160000
C       -0.44610000      -1.74990000      -1.14110000
C        0.83640000      -0.86180000      -0.98020000
O        1.27490000      -0.14860000      -2.10630000
C        1.90800000      -1.57100000      -0.14000000
C        1.17650000      -1.85550000       1.20230000
C       -0.01480000      -0.88940000       1.18370000
H        0.03110000       1.72610000      -0.82590000
H       -2.11480000      -0.91480000       0.27410000
H       -0.31340000      -2.83610000      -1.07060000
H       -0.96070000      -1.50390000      -2.07390000
H        1.66590000      -0.76690000      -2.73220000
H        2.29050000      -2.48000000      -0.61810000
H        2.74930000      -0.88520000       0.00870000
H        0.85180000      -2.89900000       1.27680000
H        1.82670000      -1.66260000       2.06030000
H       -0.41850000      -0.50840000       2.11510000
