13
Properties=species:S:1:pos:R:3 gdb_999=T pbc="F F F"
C       -0.02470000       1.47380000      -0.00890000
N        0.01660000       0.02580000      -0.01560000
C        0.01390000      -0.81560000      -1.12650000
C        0.06360000      -2.08330000      -0.62830000
N        0.09830000      -2.06760000       0.75680000
C        0.06850000      -0.79790000       1.06290000
O        0.08440000      -0.27320000       2.30320000
H        0.84680000       1.89090000      -0.52360000
H       -0.93250000       1.83890000      -0.49960000
H       -0.02080000       1.81820000       1.02530000
H       -0.02310000      -0.41970000      -2.12750000
H        0.07700000      -3.01310000      -1.17530000
H        0.12100000      -1.02500000       2.90740000
