18
Properties=species:S:1:pos:R:3 gdb_128488=T pbc="F F F"
C       -0.23150000       1.42260000       0.07550000
O        0.06450000       0.03750000      -0.10090000
C        0.67190000      -0.54140000       0.97980000
C        1.98780000      -0.95570000       1.06660000
C        3.09420000      -0.86610000       0.07180000
N        2.10410000      -1.50930000       2.29990000
N        0.94760000      -1.49310000       3.01880000
C        0.07350000      -0.90010000       2.21670000
N       -1.24010000      -0.62970000       2.60910000
H        0.68790000       2.00930000       0.20010000
H       -0.75130000       1.75020000      -0.82790000
H       -0.87450000       1.58370000       0.94890000
H        3.92940000      -0.25750000       0.43760000
H        3.49270000      -1.85340000      -0.18900000
H        2.71250000      -0.40610000      -0.84240000
H        2.91690000      -1.93640000       2.70670000
H       -1.49060000      -1.15710000       3.43670000
H       -1.90260000      -0.81210000       1.86510000
