21
Properties=species:S:1:pos:R:3 gdb_61301=T pbc="F F F"
C        0.58720000       0.49200000      -0.46220000
C       -0.34640000      -0.63270000      -0.01780000
C       -0.04320000      -1.12120000       1.41190000
C        1.27680000      -1.71930000       1.55320000
C        2.36690000      -2.21680000       1.65100000
O       -1.71010000      -0.21600000       0.02560000
C       -2.32170000      -0.05200000      -1.21570000
C       -2.80810000      -1.26900000      -1.96290000
C       -3.78670000      -0.34260000      -1.26790000
H        1.62810000       0.16320000      -0.40150000
H        0.38770000       0.79180000      -1.49460000
H        0.45780000       1.36710000       0.18330000
H       -0.25000000      -1.48430000      -0.70730000
H       -0.15100000      -0.27200000       2.09870000
H       -0.81660000      -1.84540000       1.69140000
H        3.32810000      -2.65690000       1.74890000
H       -1.95170000       0.78620000      -1.80440000
H       -2.76290000      -1.26980000      -3.04650000
H       -2.63340000      -2.23360000      -1.49950000
H       -4.23680000      -0.70210000      -0.34980000
H       -4.42150000       0.29930000      -1.86800000
