23
Properties=species:S:1:pos:R:3 gdb_94269=T pbc="F F F"
C       -0.18680000       1.50380000      -0.00570000
C        0.01750000      -0.01010000      -0.04640000
C        1.22540000      -0.46330000      -0.92090000
C        2.05620000      -0.72430000       0.36550000
C        0.74980000      -0.60960000       1.18910000
C        0.63260000      -0.10430000       2.65650000
C       -0.76610000      -0.78770000       2.70300000
C        0.17540000      -1.80930000       2.00280000
C        1.23080000      -1.47320000       3.09580000
H        0.74610000       2.02490000       0.23850000
H       -0.52920000       1.87740000      -0.97720000
H       -0.93120000       1.79040000       0.74480000
H       -0.92990000      -0.50000000      -0.29570000
H        1.02110000      -1.37920000      -1.48110000
H        1.61940000       0.28440000      -1.61460000
H        2.59430000      -1.67450000       0.41700000
H        2.76720000       0.07980000       0.58030000
H        0.89920000       0.88330000       3.03800000
H       -1.13520000      -1.06870000       3.69350000
H       -1.55970000      -0.34570000       2.09650000
H       -0.08920000      -2.79690000       1.61860000
H        2.27860000      -1.66000000       2.85030000
H        0.99640000      -1.79930000       4.11310000
