19
Properties=species:S:1:pos:R:3 gdb_120832=T pbc="F F F"
C       -0.45650000       1.28120000      -0.08030000
O       -0.19240000      -0.10210000      -0.10020000
C        0.82210000      -0.45220000      -1.01320000
C        1.01540000      -1.94380000      -0.93340000
O        0.25970000      -2.77160000      -1.82310000
C        1.68420000      -2.75000000      -1.96620000
C        2.23940000      -2.20410000      -3.26730000
C        1.99740000      -3.16970000      -4.41500000
O        2.84880000      -3.54860000      -5.17630000
H        0.43460000       1.86250000       0.20590000
H       -0.80340000       1.64480000      -1.06020000
H       -1.24280000       1.45150000       0.65840000
H        0.54740000      -0.15300000      -2.03610000
H        1.76770000       0.05890000      -0.75580000
H        1.05010000      -2.31320000       0.09240000
H        2.17110000      -3.66740000      -1.62940000
H        1.73750000      -1.26360000      -3.52200000
H        3.31470000      -2.01720000      -3.18850000
H        0.94240000      -3.50920000      -4.50730000
