17
Properties=species:S:1:pos:R:3 gdb_45844=T pbc="F F F"
O       -0.01430000      -0.06420000      -0.14450000
C       -0.06370000       1.13420000      -0.03210000
C       -1.39280000       1.89650000      -0.00890000
C       -1.69020000       2.32200000       1.41040000
C       -0.97270000       3.23390000       2.06930000
C        0.21910000       3.94530000       1.47150000
C        1.35220000       2.93400000       1.26840000
O        2.31350000       2.89460000       1.99350000
C        1.22010000       1.96600000       0.08540000
H       -1.31770000       2.77290000      -0.66660000
H       -2.16690000       1.23350000      -0.39680000
H       -2.50030000       1.80630000       1.91630000
H       -1.20410000       3.45380000       3.10670000
H       -0.04410000       4.39180000       0.50310000
H        0.58580000       4.73240000       2.13130000
H        2.07310000       1.28710000       0.09620000
H        1.26980000       2.58420000      -0.82430000
