20
Properties=species:S:1:pos:R:3 gdb_37964=T pbc="F F F"
C        0.01220000       1.56740000      -0.03740000
C        1.53600000       1.45360000      -0.06820000
C        2.06120000       0.77800000       1.13460000
C        1.50020000       0.92240000       2.54740000
C        0.57700000      -0.20380000       3.02110000
O       -0.70030000      -0.15960000       2.41390000
C       -0.75760000      -0.72730000       1.12250000
C        0.00130000       0.01810000       0.03670000
N        1.51240000      -0.06850000       0.04260000
H       -0.41000000       2.10210000       0.81820000
H       -0.42600000       1.96250000      -0.95470000
H        2.17950000       1.95740000      -0.78320000
H        3.14290000       0.66180000       1.11880000
H        2.34770000       0.97640000       3.24090000
H        0.95450000       1.86710000       2.65470000
H        1.04890000      -1.18510000       2.85500000
H        0.39990000      -0.09280000       4.09630000
H       -0.39440000      -1.76950000       1.14250000
H       -1.82190000      -0.74930000       0.86070000
H       -0.31370000      -0.40820000      -0.92210000
