15
Properties=species:S:1:pos:R:3 gdb_3375=T pbc="F F F"
C        0.03870000      -1.20030000       0.00970000
C        0.04660000       0.00300000       0.03190000
C        0.05950000       1.43820000       0.06110000
C        0.48510000       2.24790000       1.27360000
C        1.60480000       1.53230000       2.03780000
C        2.47520000       1.55100000       0.73610000
C        1.33180000       2.26610000       0.00750000
H        0.02630000      -2.26160000      -0.01430000
H       -0.76130000       1.90190000      -0.48110000
H       -0.17380000       3.00940000       1.67400000
H        2.03360000       2.14960000       2.82960000
H        1.35070000       0.55090000       2.44700000
H        3.36260000       2.17820000       0.84230000
H        2.76930000       0.58140000       0.32560000
H        1.43990000       3.04410000      -0.73920000
