19
Properties=species:S:1:pos:R:3 gdb_67860=T pbc="F F F"
C       -0.27100000       1.50160000       0.06340000
C        0.03360000       0.01030000      -0.02600000
C       -1.17750000      -0.87460000      -0.20740000
C       -1.26650000      -1.83340000       0.71540000
C       -0.13510000      -1.79420000       1.71540000
C        0.82280000      -0.74620000       1.11780000
C        1.84850000      -1.27630000       0.06820000
C        1.17670000      -0.38780000      -0.99040000
O        1.46740000      -0.04930000      -2.10090000
H        0.63670000       2.08000000       0.26340000
H       -0.69070000       1.86230000      -0.88110000
H       -0.99400000       1.70720000       0.85920000
H       -1.88080000      -0.71140000      -1.01690000
H       -2.06560000      -2.56530000       0.76930000
H       -0.49830000      -1.51540000       2.71360000
H        0.35510000      -2.76970000       1.83260000
H        1.28030000      -0.09400000       1.86290000
H        2.90230000      -1.04310000       0.24320000
H        1.76380000      -2.34660000      -0.14670000
