15
Properties=species:S:1:pos:R:3 gdb_26610=T pbc="F F F"
N        0.01070000       1.37930000       0.15320000
C       -0.01080000       0.00310000       0.06020000
C       -1.18070000      -0.70700000       0.04330000
O       -2.39370000      -0.09660000       0.05530000
C       -1.17980000      -2.14110000       0.00360000
N       -2.30480000      -2.77440000      -0.01710000
N        0.10950000      -2.68410000      -0.01240000
C        1.23130000      -1.90690000      -0.00670000
N        1.22090000      -0.61890000       0.02770000
H        0.85830000       1.80200000      -0.19390000
H       -0.84060000       1.84100000      -0.13020000
H       -3.03190000      -0.83420000       0.02400000
H       -2.20760000      -3.78580000      -0.05140000
H        0.20470000      -3.68850000      -0.04110000
H        2.17510000      -2.44380000      -0.03450000
