15
Properties=species:S:1:pos:R:3 gdb_36070=T pbc="F F F"
N       -0.15520000      -1.13230000      -0.25090000
C       -0.08470000       0.00690000      -0.07280000
C        0.02110000       1.45110000       0.16300000
C        1.43370000       1.94980000       0.10010000
C        1.94080000       3.38460000      -0.11360000
C        3.20220000       3.03390000       0.71340000
C        2.71620000       1.64450000       0.92160000
N        3.59740000       1.95430000      -0.25960000
C        2.33770000       2.27840000      -1.06060000
H       -0.58770000       1.97170000      -0.58620000
H       -0.42870000       1.67450000       1.13890000
H        1.37260000       4.29040000      -0.27200000
H        3.93220000       3.63130000       1.24550000
H        2.96890000       0.88390000       1.65040000
H        2.23120000       2.15050000      -2.13050000
