18
Properties=species:S:1:pos:R:3 gdb_14060=T pbc="F F F"
C        0.02350000       1.61100000      -0.16410000
C        0.03860000       0.10440000      -0.03190000
C        1.35040000      -0.68740000      -0.06640000
O        2.57950000      -0.01890000      -0.10030000
C        0.57640000      -0.55930000       1.20090000
C        1.05270000       0.03560000       2.51890000
C        0.39630000      -1.22270000       3.12960000
O       -0.06350000      -1.66930000       1.83010000
H        0.94110000       2.04840000       0.23880000
H       -0.05750000       1.91640000      -1.21350000
H       -0.82530000       2.04840000       0.37250000
H       -0.79870000      -0.41830000      -0.48960000
H        1.32600000      -1.65750000      -0.56350000
H        2.71530000       0.31660000      -0.99300000
H        2.13510000       0.11580000       2.62300000
H        0.58730000       0.98250000       2.79990000
H        1.08910000      -1.94160000       3.58170000
H       -0.44060000      -1.04700000       3.81430000
