13
Properties=species:S:1:pos:R:3 gdb_33277=T pbc="F F F"
C        0.06150000      -3.73630000      -0.03090000
C        0.03370000      -2.52940000      -0.01460000
C        0.00340000      -1.17100000       0.00380000
C       -0.01840000       0.03920000       0.02830000
C       -0.02910000       1.47400000       0.04050000
C        0.53190000       2.18770000       1.24860000
N        1.26400000       2.21530000      -0.00690000
C       -1.10880000       2.10040000      -0.69950000
N       -1.98490000       2.59520000      -1.26700000
H        0.08310000      -4.79820000      -0.04730000
H        0.07960000       3.13090000       1.53830000
H        0.87400000       1.55410000       2.06120000
H        2.02150000       1.53540000      -0.00160000
