23
Properties=species:S:1:pos:R:3 gdb_76192=T pbc="F F F"
C       -0.13480000       1.53870000       0.02880000
C       -0.04270000       0.02510000       0.00500000
C       -1.25550000      -0.67300000      -0.58220000
C        1.30610000      -0.60900000      -0.23510000
O        2.38860000       0.24440000      -0.47770000
C        0.68610000      -0.66430000       1.14080000
C        1.31600000      -0.04180000       2.39390000
C        1.21200000      -1.43500000       3.08360000
C        0.31630000      -1.93960000       1.91310000
H        0.79060000       1.99210000       0.38690000
H       -0.32690000       1.93000000      -0.97690000
H       -0.95750000       1.86720000       0.67480000
H       -1.42960000      -0.35100000      -1.61560000
H       -1.13710000      -1.76070000      -0.58610000
H       -2.15950000      -0.44140000      -0.00620000
H        1.32210000      -1.53560000      -0.81380000
H        3.16820000      -0.13570000      -0.05880000
H        2.31980000       0.37740000       2.27650000
H        0.68580000       0.71970000       2.86410000
H        2.17330000      -1.95310000       3.12930000
H        0.76560000      -1.45260000       4.08020000
H       -0.74440000      -1.98900000       2.18050000
H        0.59770000      -2.89320000       1.45580000
