25
Properties=species:S:1:pos:R:3 gdb_109927=T pbc="F F F"
C        1.09570000       0.96810000       0.28730000
C        1.09050000      -0.55850000       0.14070000
C        1.57240000      -1.02380000      -1.22900000
C        3.09000000      -0.98390000      -1.62580000
C        4.11810000      -0.99420000      -0.49610000
C        2.89310000      -2.35400000      -2.34220000
C        1.51530000      -2.52680000      -1.62900000
C        1.51840000      -3.54480000      -0.49210000
O        0.40150000      -2.75620000      -2.48170000
H        2.10040000       1.38160000       0.14960000
H        0.44390000       1.43560000      -0.45900000
H        0.74370000       1.27490000       1.27740000
H        1.70130000      -1.00380000       0.93500000
H        0.06960000      -0.93040000       0.29720000
H        1.00250000      -0.49180000      -1.99900000
H        3.33360000      -0.16370000      -2.30690000
H        3.95260000      -1.80970000       0.21560000
H        5.12670000      -1.12200000      -0.90500000
H        4.10820000      -0.05690000       0.07030000
H        2.75650000      -2.25420000      -3.42140000
H        3.65070000      -3.11980000      -2.14570000
H        2.34120000      -3.38360000       0.20910000
H        0.57700000      -3.50760000       0.06430000
H        1.63520000      -4.55800000      -0.89880000
H        0.37740000      -3.69490000      -2.69830000
