16
Properties=species:S:1:pos:R:3 gdb_48933=T pbc="F F F"
O       -0.27140000       0.50560000      -0.80060000
C        0.14610000       1.10170000       0.16550000
C        1.35950000       1.94310000       0.16940000
C        1.89510000       2.69620000       1.37450000
N        3.08820000       3.34810000       0.82440000
C        3.67590000       2.48850000      -0.21740000
C        2.85530000       3.67340000      -0.59320000
C        1.72100000       2.73340000      -1.09190000
C        2.54490000       1.54380000      -0.71460000
H       -0.38520000       1.04420000       1.14200000
H        1.20050000       3.45450000       1.75030000
H        2.18240000       2.03680000       2.20000000
H        4.74190000       2.30540000      -0.23300000
H        3.11790000       4.65020000      -0.97660000
H        1.03120000       2.86730000      -1.91190000
H        2.61920000       0.57450000      -1.18470000
