18
Properties=species:S:1:pos:R:3 gdb_58856=T pbc="F F F"
C       -0.00380000       1.56560000       0.04210000
C        0.01880000       0.03620000       0.02870000
O        0.72090000      -0.50550000       1.14100000
C       -1.37530000      -0.55590000       0.03740000
C       -1.90380000      -1.62570000      -0.85680000
N       -2.52830000      -0.31020000      -0.95690000
C       -3.50870000      -0.26510000       0.19070000
C       -2.32710000      -0.36340000       1.17270000
O       -2.15940000      -0.09540000       2.33320000
H        1.01930000       1.94960000       0.06130000
H       -0.51360000       1.95160000      -0.84570000
H       -0.52710000       1.93860000       0.92930000
H        0.56080000      -0.31010000      -0.85830000
H        0.21770000      -0.27400000       1.93340000
H       -1.27240000      -1.87860000      -1.70410000
H       -2.47530000      -2.45830000      -0.45070000
H       -4.00340000       0.70740000       0.25460000
H       -4.25710000      -1.06240000       0.17500000
