14
Properties=species:S:1:pos:R:3 gdb_50031=T pbc="F F F"
O        0.11710000       0.24610000       0.62730000
C        0.10060000       1.35630000       0.17050000
N        1.15390000       1.91050000      -0.56860000
C        2.54240000       1.77090000      -0.19980000
C        1.85980000       3.10690000      -0.21610000
C        2.07180000       4.38640000      -1.01750000
O        1.87340000       5.15530000       0.21720000
C        1.62230000       4.02860000       0.96610000
O        1.32270000       3.94610000       2.11130000
H       -0.76950000       2.03530000       0.21690000
H        2.75810000       1.33090000       0.77070000
H        3.22900000       1.52060000      -1.00340000
H        3.07030000       4.55450000      -1.42420000
H        1.29880000       4.61880000      -1.75220000
