16
Properties=species:S:1:pos:R:3 gdb_17514=T pbc="F F F"
O       -0.08030000      -0.04000000       0.00830000
C       -0.01590000       1.16480000       0.04070000
C        1.24680000       1.94730000      -0.02280000
C        1.50480000       3.13010000       0.96630000
C        2.37060000       3.73270000      -0.13370000
C        3.06800000       2.56700000      -0.86010000
C        2.62990000       1.27010000      -0.18330000
C        1.65190000       2.95230000      -1.20410000
H       -0.94000000       1.78480000       0.11660000
H        0.59910000       3.72170000       1.12940000
H        1.95760000       2.86900000       1.92950000
H        2.75750000       4.74140000      -0.19970000
H        3.95080000       2.74220000      -1.46160000
H        3.13660000       0.94920000       0.73320000
H        2.58040000       0.43820000      -0.88900000
H        1.16840000       3.23270000      -2.12840000
