18
Properties=species:S:1:pos:R:3 gdb_47916=T pbc="F F F"
N       -0.21970000       1.31050000       0.25710000
C       -0.00450000       0.09270000       0.01390000
O        1.22910000      -0.46490000      -0.08810000
C        1.33080000      -1.69990000      -0.80400000
C        1.16520000      -1.49810000      -2.31540000
O        0.02250000      -0.75920000      -2.70080000
C       -1.24580000      -1.33350000      -2.42630000
C       -1.87600000      -0.65340000      -1.21360000
O       -1.01370000      -0.81160000      -0.08340000
H        0.66050000       1.82250000       0.27750000
H        2.33940000      -2.07260000      -0.60440000
H        0.60910000      -2.41880000      -0.41170000
H        2.01080000      -0.92020000      -2.70020000
H        1.18090000      -2.48970000      -2.79790000
H       -1.88320000      -1.17730000      -3.30590000
H       -1.16220000      -2.41590000      -2.25720000
H       -2.03340000       0.41340000      -1.39880000
H       -2.82960000      -1.12180000      -0.95400000
