20
Properties=species:S:1:pos:R:3 gdb_112687=T pbc="F F F"
C       -0.01250000       1.38250000       0.11670000
O        0.00190000      -0.00840000      -0.11140000
C       -1.27580000      -0.61850000      -0.04870000
C       -1.11760000      -2.04780000      -0.60540000
N       -0.95370000      -2.87410000       0.57340000
C       -0.56660000      -4.26180000       0.50350000
C       -1.30560000      -2.26120000       1.74650000
O       -1.28370000      -2.77020000       2.84820000
C       -1.75450000      -0.84190000       1.39660000
H        1.01300000       1.73780000      -0.00810000
H       -0.66090000       1.90290000      -0.60590000
H       -0.35050000       1.64300000       1.13020000
H       -1.99160000      -0.03520000      -0.64430000
H       -1.99640000      -2.35380000      -1.19240000
H       -0.23840000      -2.09470000      -1.25650000
H        0.42220000      -4.37290000       0.04220000
H       -0.53560000      -4.64580000       1.52470000
H       -1.28660000      -4.84980000      -0.08100000
H       -1.34230000      -0.12320000       2.10660000
H       -2.84620000      -0.79460000       1.47670000
