19
Properties=species:S:1:pos:R:3 gdb_68956=T pbc="F F F"
C        0.16070000       1.46150000       0.06120000
C        0.04120000      -0.04300000       0.05950000
C        1.23380000      -0.88250000      -0.23260000
C        0.66820000      -0.93220000       1.19040000
C        1.46170000      -0.34960000       2.28810000
O        2.34800000       0.46590000       2.15200000
C       -0.33400000      -2.00790000       1.43630000
C       -1.39920000      -1.89560000       0.64130000
C       -1.32940000      -0.66650000      -0.23690000
H        1.13260000       1.77990000       0.44390000
H        0.04850000       1.85030000      -0.95780000
H       -0.61870000       1.92030000       0.67940000
H        1.12790000      -1.79030000      -0.81810000
H        2.18360000      -0.36550000      -0.32550000
H        1.18000000      -0.71350000       3.30220000
H       -0.16860000      -2.79810000       2.16060000
H       -2.22690000      -2.59400000       0.59910000
H       -2.13990000       0.03700000      -0.00140000
H       -1.43610000      -0.91070000      -1.30190000
