22
Properties=species:S:1:pos:R:3 gdb_81804=T pbc="F F F"
C        0.08220000       1.53470000      -0.03640000
C        0.04060000       0.01930000       0.01710000
N        1.07040000      -0.58750000      -0.91340000
C        0.93950000      -2.05140000      -0.75560000
C        1.68610000      -1.30620000       0.28140000
C        3.16700000      -1.41840000       0.49230000
C        0.70130000      -0.65620000       1.23130000
C        1.01450000      -0.03180000       2.55720000
C        0.08770000      -1.22480000       2.47740000
H        1.09060000       1.90400000       0.17190000
H       -0.21040000       1.88450000      -1.03120000
H       -0.60500000       1.97160000       0.69630000
H       -0.97130000      -0.34060000      -0.21180000
H       -0.03890000      -2.47190000      -0.53020000
H        1.51400000      -2.60850000      -1.49040000
H        3.66900000      -1.66710000      -0.44710000
H        3.58750000      -0.47830000       0.86450000
H        3.40290000      -2.20590000       1.21840000
H        2.00530000      -0.18440000       2.97360000
H        0.58630000       0.93920000       2.78410000
H       -0.97210000      -1.05780000       2.64360000
H        0.44980000      -2.18170000       2.84020000
