12
Properties=species:S:1:pos:R:3 gdb_133313=T pbc="F F F"
N        0.03260000       1.34970000       0.13700000
C       -0.01940000      -0.00840000       0.05260000
C       -1.19410000      -0.71400000       0.02950000
F       -2.35850000      -0.06320000       0.03870000
C       -1.19350000      -2.14320000      -0.01050000
O       -2.12410000      -2.92190000      -0.03640000
N        0.15000000      -2.60690000      -0.02050000
N        1.28100000      -1.90690000      -0.01250000
N        1.21530000      -0.63590000       0.02370000
H        0.91770000       1.77370000      -0.09020000
H       -0.79980000       1.86970000      -0.08480000
H        0.27900000      -3.61110000      -0.05100000
