17
Properties=species:S:1:pos:R:3 gdb_98750=T pbc="F F F"
O        0.24700000       1.34950000       0.03030000
C        0.08790000      -0.03050000      -0.06610000
C       -1.36260000      -0.44300000       0.13080000
O       -2.19960000       0.41500000       0.34250000
C       -1.66600000      -1.89750000       0.06830000
C       -2.85980000      -2.42950000       0.81350000
C       -2.90490000      -2.42770000      -0.68990000
C       -3.84450000      -1.51930000      -1.40610000
O       -4.34970000      -1.81370000      -2.46190000
H       -0.64380000       1.69760000       0.19760000
H        0.41710000      -0.41070000      -1.04890000
H        0.69780000      -0.56130000       0.68540000
H       -0.79660000      -2.54170000      -0.01270000
H       -2.76530000      -3.38190000       1.32090000
H       -3.46080000      -1.68210000       1.32100000
H       -2.74760000      -3.36970000      -1.20440000
H       -4.06550000      -0.56350000      -0.89470000
