23
Properties=species:S:1:pos:R:3 gdb_115912=T pbc="F F F"
C        0.04150000       1.54240000       0.09370000
C       -0.02030000       0.01400000       0.04780000
C       -1.44250000      -0.53500000      -0.01440000
C       -1.48650000      -2.06000000      -0.19830000
C       -2.84570000      -2.65630000       0.16450000
C       -3.20310000      -2.86950000       1.61790000
C       -3.88150000      -1.77810000       0.83660000
C       -3.50700000      -0.33480000       1.10660000
O       -2.10510000      -0.15400000       1.19050000
H        1.07440000       1.89400000       0.17560000
H       -0.38960000       1.98350000      -0.81230000
H       -0.51990000       1.92180000       0.95110000
H        0.53160000      -0.36380000      -0.82180000
H        0.46600000      -0.40790000       0.93620000
H       -1.97520000      -0.06320000      -0.86040000
H       -1.24630000      -2.29070000      -1.24220000
H       -0.69870000      -2.51970000       0.41180000
H       -3.22250000      -3.40110000      -0.52910000
H       -3.77770000      -3.74870000       1.88820000
H       -2.46450000      -2.56390000       2.35260000
H       -4.92150000      -1.92840000       0.56140000
H       -3.92020000       0.31120000       0.31240000
H       -3.91600000       0.00860000       2.06340000
