18
Properties=species:S:1:pos:R:3 gdb_66568=T pbc="F F F"
C       -0.06920000       1.44350000      -0.06080000
C        0.04210000      -0.04230000       0.05440000
C        1.00890000      -0.92230000      -0.65540000
C        0.98810000      -2.13860000       0.30150000
O        0.93940000      -1.62790000       1.65140000
C       -0.30370000      -0.98640000       1.25330000
C       -1.20360000      -0.56830000       2.37390000
C       -0.54670000      -2.03230000       0.12760000
N       -0.45750000      -0.99590000      -0.99900000
H        0.64320000       1.94180000       0.60570000
H        0.14160000       1.76220000      -1.08600000
H       -1.07640000       1.78900000       0.19540000
H        1.75470000      -0.58830000      -1.36600000
H        1.63440000      -3.00200000       0.16100000
H       -0.72400000       0.20640000       2.98160000
H       -2.14080000      -0.16340000       1.97980000
H       -1.43450000      -1.41840000       3.02140000
H       -1.28140000      -2.83450000       0.10690000
