14
Properties=species:S:1:pos:R:3 gdb_33632=T pbc="F F F"
C       -0.10790000      -1.28830000       0.03310000
C       -0.10360000      -0.08520000       0.03750000
C       -0.08700000       1.32700000       0.05720000
C       -0.90530000       2.37860000       0.75180000
C        0.06370000       3.00670000       1.78520000
N        1.35160000       3.13070000       1.00810000
C        1.10590000       2.38190000       0.02330000
O        0.77010000       2.88720000      -1.23840000
C       -0.57870000       2.39610000      -0.82050000
H       -0.11060000      -2.35020000       0.02300000
H       -1.95030000       2.20010000       0.99480000
H       -0.19550000       4.03260000       2.06150000
H        0.11900000       2.40010000       2.70020000
H       -1.32900000       2.41090000      -1.60130000
