16
Properties=species:S:1:pos:R:3 gdb_79273=T pbc="F F F"
O        0.01640000       1.53310000      -0.29080000
C        0.03840000       0.13480000      -0.21020000
C       -1.29210000      -0.57360000      -0.10110000
C       -1.83040000      -0.79180000      -1.47490000
C       -0.86050000      -0.20340000      -2.48260000
C        0.21640000      -0.71200000      -1.49170000
C        1.56780000      -1.12060000      -1.96650000
O        2.56100000      -0.47000000      -1.74290000
N       -0.80850000      -1.74980000      -0.92300000
H        0.92960000       1.83870000      -0.32580000
H        0.72620000      -0.22580000       0.56470000
H       -1.88970000      -0.73070000       0.78880000
H       -2.85450000      -1.10520000      -1.64110000
H       -0.85450000      -0.78290000      -3.40930000
H       -0.87550000       0.86870000      -2.68970000
H        1.60640000      -2.06030000      -2.55930000
