19
Properties=species:S:1:pos:R:3 gdb_63253=T pbc="F F F"
C        0.18420000       1.43070000       0.16670000
C       -0.07130000      -0.07770000      -0.00800000
C       -1.57240000      -0.34750000      -0.13770000
C        0.72680000      -0.59950000      -1.23460000
C        2.13760000      -0.84430000      -0.72610000
O        3.16200000      -0.90730000      -1.34880000
C        2.03260000      -1.00610000       0.82520000
O        2.96560000      -1.21000000       1.55260000
C        0.56330000      -0.85140000       1.18050000
H        1.25330000       1.65470000       0.26240000
H       -0.19440000       1.99300000      -0.69310000
H       -0.31340000       1.80960000       1.06530000
H       -1.99250000       0.17720000      -1.00290000
H       -1.77520000      -1.41660000      -0.26300000
H       -2.11130000      -0.00600000       0.75280000
H        0.32450000      -1.56740000      -1.56690000
H        0.71470000       0.07070000      -2.09760000
H        0.42690000      -0.37280000       2.15320000
H        0.13380000      -1.86120000       1.25020000
