15
Properties=species:S:1:pos:R:3 gdb_10104=T pbc="F F F"
C       -0.01130000       1.53610000       0.02280000
C        0.00460000       0.00800000      -0.03470000
C       -1.40720000      -0.59110000      -0.02750000
O       -2.08910000      -0.16130000      -1.21290000
C       -3.42800000       0.04760000      -1.13170000
O       -4.07200000       0.39470000      -2.07000000
C       -1.37280000      -2.06320000       0.01900000
N       -1.33810000      -3.21630000       0.07270000
H        1.01000000       1.92540000       0.01380000
H       -0.54210000       1.95630000      -0.83490000
H       -0.49720000       1.89580000       0.93650000
H        0.51560000      -0.34220000      -0.93710000
H        0.54520000      -0.40870000       0.82170000
H       -1.95350000      -0.23870000       0.85850000
H       -3.83080000      -0.12770000      -0.11600000
