19
Properties=species:S:1:pos:R:3 gdb_56695=T pbc="F F F"
C        0.12580000       1.41310000      -0.29460000
C        0.00770000      -0.08290000       0.05540000
C        0.64230000      -0.38140000       1.33960000
C        1.16750000      -0.61730000       2.39450000
C       -1.45450000      -0.56620000       0.02550000
C       -2.00650000      -1.02880000      -1.31610000
C       -1.70200000      -2.03970000      -0.24850000
C       -2.35710000       0.10710000       0.92090000
C       -3.11150000       0.67670000       1.66510000
H        1.17340000       1.72380000      -0.30220000
H       -0.30520000       1.60400000      -1.28200000
H       -0.40990000       2.01880000       0.44010000
H        0.53570000      -0.65610000      -0.71890000
H        1.62730000      -0.82890000       3.32790000
H       -3.04390000      -0.80320000      -1.53120000
H       -1.34230000      -0.96520000      -2.17180000
H       -0.82520000      -2.66760000      -0.36440000
H       -2.53050000      -2.50920000       0.26730000
H       -3.77460000       1.17310000       2.32920000
