20
Properties=species:S:1:pos:R:3 gdb_110277=T pbc="F F F"
C       -1.28270000       3.41740000       1.51260000
C       -1.10040000       2.06180000       0.81870000
C        0.00810000       1.23610000       1.45570000
N       -0.10850000       0.76560000       2.89050000
C       -1.00250000      -0.39900000       2.97270000
C       -2.26390000      -0.68030000       2.18060000
C        0.38450000      -0.62380000       2.46800000
C        0.46780000      -0.17510000       1.03110000
O        0.89600000      -0.65530000       0.02150000
H       -0.36560000       4.01400000       1.46230000
H       -2.08460000       3.99310000       1.04100000
H       -1.53370000       3.28630000       2.56940000
H       -2.04800000       1.51950000       0.81790000
H       -0.82770000       2.21120000      -0.23340000
H        0.93170000       1.83430000       1.43030000
H       -1.10970000      -0.67390000       4.02140000
H       -2.12790000      -0.61040000       1.10070000
H       -2.58970000      -1.70250000       2.40020000
H       -3.07260000      -0.00490000       2.47880000
H        1.13400000      -1.18690000       3.01300000
