15
Properties=species:S:1:pos:R:3 gdb_47279=T pbc="F F F"
N        0.01820000       0.60020000       1.41050000
C        0.09700000       0.05160000       0.26760000
O        1.28840000      -0.44330000      -0.19680000
C        1.44680000      -0.62390000      -1.58310000
O        0.86160000      -1.81200000      -2.05810000
C       -0.48960000      -1.82970000      -2.29030000
N       -1.00830000      -2.69200000      -3.06550000
C       -1.36580000      -0.87130000      -1.60320000
C       -1.12210000      -0.08940000      -0.54020000
H        0.93700000       0.61180000       1.85830000
H        1.06100000       0.24260000      -2.13190000
H        2.51840000      -0.73810000      -1.74490000
H       -0.28150000      -3.29600000      -3.45490000
H       -2.36860000      -0.88140000      -2.01550000
H       -1.93780000       0.50020000      -0.13710000
