16
Properties=species:S:1:pos:R:3 gdb_45015=T pbc="F F F"
N        0.02620000       0.80680000       1.03870000
C        0.06040000      -0.06070000       0.11080000
N        1.20720000      -0.48080000      -0.59260000
C        1.42130000      -1.75660000      -1.09070000
O        2.46020000      -2.07050000      -1.62370000
C        0.26330000      -2.71660000      -0.83040000
C       -1.07820000      -2.00620000      -0.88310000
C       -1.83760000      -1.66030000       0.36030000
N       -1.11470000      -0.63870000      -0.38180000
H        0.96260000       1.13310000       1.27320000
H        2.01880000       0.12140000      -0.58820000
H        0.32750000      -3.52410000      -1.56030000
H        0.43860000      -3.15830000       0.15820000
H       -1.63950000      -2.14290000      -1.80450000
H       -2.91980000      -1.57590000       0.33610000
H       -1.41980000      -1.97410000       1.31380000
