17
Properties=species:S:1:pos:R:3 gdb_123722=T pbc="F F F"
C       -0.00450000       1.53430000      -0.13210000
C        1.38300000       2.07350000       0.11630000
C        2.46160000       1.33340000       0.37260000
C        2.48510000      -0.17210000       0.45930000
C        1.12350000      -0.74370000       0.21720000
N        0.84940000      -2.04600000       0.23250000
N       -0.47150000      -2.10270000      -0.02920000
C       -1.03730000      -0.88310000      -0.20860000
C       -0.02180000       0.03860000      -0.05470000
H       -0.70120000       1.97860000       0.59470000
H       -0.35980000       1.88640000      -1.11240000
H        1.48210000       3.15560000       0.07720000
H        3.41470000       1.83050000       0.53640000
H        3.20760000      -0.57670000      -0.26380000
H        2.86510000      -0.48370000       1.44270000
H       -0.92090000      -3.00110000      -0.07070000
H       -2.08860000      -0.77310000      -0.42540000
