25
Properties=species:S:1:pos:R:3 gdb_95998=T pbc="F F F"
C       -0.99800000       1.15490000       0.49250000
C       -0.22780000      -0.12980000       0.19350000
C        0.60750000      -0.08340000      -1.10670000
C        1.70690000      -1.17010000      -0.94570000
C        1.56250000      -1.70060000       0.50540000
C        0.78830000      -0.60210000       1.26740000
C        1.70770000       0.49550000       1.77680000
C        1.35700000       1.29630000       3.00590000
C        2.48250000       0.29260000       3.05550000
H       -0.32250000       2.00770000       0.61210000
H       -1.69100000       1.38990000      -0.32280000
H       -1.58720000       1.06640000       1.41160000
H       -0.95840000      -0.94460000       0.08770000
H       -0.01550000      -0.24160000      -1.99200000
H        1.05980000       0.90850000      -1.22170000
H        1.59610000      -1.97690000      -1.67550000
H        2.70030000      -0.74180000      -1.10890000
H        0.97280000      -2.62430000       0.50700000
H        2.52460000      -1.93320000       0.97040000
H        0.26300000      -1.02550000       2.13300000
H        2.23680000       1.04390000       1.00070000
H        1.60420000       2.35220000       3.02900000
H        0.43710000       1.04770000       3.52540000
H        2.31460000      -0.62810000       3.60570000
H        3.50080000       0.66120000       3.11210000
