19
Properties=species:S:1:pos:R:3 gdb_78586=T pbc="F F F"
C       -0.02130000       1.59270000       0.01350000
C       -0.08010000       0.09940000      -0.01670000
C        0.85880000      -0.95150000      -0.58030000
C        0.47960000      -0.96660000       0.90740000
C       -0.87640000      -1.66120000       1.02440000
O       -1.63880000      -1.25510000       2.13990000
C       -1.23190000      -0.97030000      -0.32110000
C       -0.27250000      -1.63720000      -1.34520000
O       -0.40990000      -1.20630000      -2.68160000
H        0.98730000       1.93210000       0.27420000
H       -0.27600000       2.03400000      -0.95780000
H       -0.71220000       2.01670000       0.75220000
H        1.88970000      -0.82750000      -0.89280000
H        1.23460000      -0.85360000       1.67750000
H       -0.90600000      -2.75600000       1.03530000
H       -1.56290000      -0.29660000       2.21410000
H       -2.26900000      -0.76690000      -0.58340000
H       -0.28790000      -2.73150000      -1.38970000
H       -0.31250000      -0.24700000      -2.69210000
