19
Properties=species:S:1:pos:R:3 gdb_108341=T pbc="F F F"
C        0.01480000       1.43790000       0.23940000
N       -0.15200000       0.03600000      -0.13530000
C        0.66470000      -0.42630000      -1.21450000
C        0.86520000      -1.95510000      -1.33960000
O        2.30320000      -1.80950000      -1.44380000
C        2.22690000      -0.37980000      -1.35230000
C        2.06070000       0.40030000      -2.68550000
N        1.24390000      -0.43870000      -3.59210000
C        0.57240000       0.36660000      -2.54990000
H        1.05040000       1.71470000       0.49970000
H       -0.30550000       2.08720000      -0.58060000
H       -0.62350000       1.65530000       1.10000000
H       -0.00230000      -0.55250000       0.67710000
H        0.58610000      -2.50870000      -0.43220000
H        0.43430000      -2.43320000      -2.22210000
H        2.91540000       0.05730000      -0.62410000
H        2.71300000       1.16830000      -3.08420000
H        1.15660000       0.07220000      -4.47010000
H       -0.18190000       1.09800000      -2.81420000
