19
Properties=species:S:1:pos:R:3 gdb_85754=T pbc="F F F"
C       -0.52180000       1.44270000       0.64440000
N        0.22490000       0.31740000       0.08350000
C       -0.62650000      -0.64850000      -0.61530000
C       -1.00790000      -1.75930000       0.43550000
C       -1.27760000      -3.04680000      -0.19630000
N       -1.48880000      -4.05990000      -0.71230000
C        0.18120000      -1.74790000       1.39270000
C        1.55320000      -1.74000000       0.75210000
C        0.90370000      -0.43770000       1.12010000
H        0.17470000       2.12650000       1.13860000
H       -1.00980000       1.99320000      -0.16450000
H       -1.29120000       1.15240000       1.38210000
H       -1.50670000      -0.16180000      -1.03820000
H       -0.07930000      -1.11230000      -1.44000000
H       -1.90820000      -1.46210000       0.98530000
H        0.04760000      -2.16050000       2.38490000
H        2.37950000      -2.06150000       1.37610000
H        1.65980000      -2.01790000      -0.29050000
H        1.33270000       0.16210000       1.91370000
