13
Properties=species:S:1:pos:R:3 gdb_20411=T pbc="F F F"
C        0.03680000       1.38580000      -0.15960000
C        1.48990000       1.87380000       0.15580000
C        2.10810000       0.58150000       0.59670000
N        3.28850000       0.12110000       0.90280000
O        3.05260000      -1.20870000       1.26750000
C        1.72200000      -1.49890000       1.16240000
C        1.08880000      -0.38140000       0.73940000
O       -0.15110000       0.06720000       0.44010000
H       -0.73600000       2.03970000       0.24770000
H       -0.11590000       1.28400000      -1.23920000
H        1.96630000       2.31830000      -0.72070000
H        1.50400000       2.61730000       0.95910000
H        1.43480000      -2.50360000       1.41990000
