18
Properties=species:S:1:pos:R:3 gdb_61426=T pbc="F F F"
C        0.13120000       1.91190000       0.14040000
C       -0.14760000       0.43430000      -0.11660000
O        0.26460000       0.16590000      -1.45980000
C       -0.00680000      -1.09550000      -1.88190000
N        0.42220000      -1.26360000      -3.16560000
O       -0.58620000      -1.92610000      -1.21810000
C        0.64810000      -0.43940000       0.87450000
C       -0.10530000      -0.89510000       2.10350000
O        1.80520000      -0.70890000       0.66440000
H        1.20120000       2.11120000       0.03850000
H       -0.41540000       2.52960000      -0.57650000
H       -0.18350000       2.19260000       1.14970000
H       -1.21480000       0.21180000      -0.01990000
H        1.10020000      -0.61480000      -3.52920000
H        0.46460000      -2.21400000      -3.49190000
H       -0.67670000      -0.07560000       2.55290000
H       -0.82540000      -1.66010000       1.79120000
H        0.58520000      -1.31770000       2.83400000
