19
Properties=species:S:1:pos:R:3 gdb_76585=T pbc="F F F"
C       -0.16980000       1.54440000       0.05470000
C        0.01880000       0.04720000      -0.03510000
C        0.68360000      -0.63280000      -1.19930000
C        1.22940000       0.11330000      -2.39550000
C        1.39730000      -0.59970000       0.15940000
C        2.56030000       0.20220000       0.35520000
C        3.55760000       0.86910000       0.53550000
C        4.67210000       1.62200000       0.73220000
C        5.66300000       2.29130000       0.90690000
H        0.69690000       2.09230000      -0.32020000
H       -1.04720000       1.85920000      -0.52060000
H       -0.32370000       1.85040000       1.09460000
H       -0.78460000      -0.52180000       0.42600000
H        0.28280000      -1.61350000      -1.44300000
H        1.71980000       1.04620000      -2.11070000
H        1.97020000      -0.49630000      -2.92300000
H        0.42700000       0.35160000      -3.10210000
H        1.40620000      -1.53580000       0.71130000
H        6.53310000       2.87970000       1.06010000
