16
Properties=species:S:1:pos:R:3 gdb_51036=T pbc="F F F"
O       -0.14870000       0.13980000      -0.65440000
C       -0.06500000       1.20030000      -0.07580000
N        1.10870000       1.81260000       0.25560000
C        2.39760000       1.15130000       0.09190000
C        2.70520000       0.72980000      -1.37650000
O        3.76030000       1.70680000      -1.48710000
C        3.56440000       2.15620000      -0.14270000
C        2.64020000       0.14310000       1.11530000
C        2.86410000      -0.67150000       1.96980000
H       -0.94390000       1.80640000       0.21990000
H        1.06860000       2.60430000       0.88030000
H        3.07110000      -0.29510000      -1.48230000
H        1.88810000       0.91210000      -2.07670000
H        3.26360000       3.21100000      -0.09110000
H        4.44110000       1.98910000       0.49180000
H        3.04820000      -1.40330000       2.71740000
