17
Properties=species:S:1:pos:R:3 gdb_2373=T pbc="F F F"
C       -0.05710000       1.43480000      -0.26510000
C        0.06650000       0.02770000       0.31720000
O        0.67120000       0.02850000       1.60760000
C       -1.28620000      -0.65680000       0.38330000
O       -1.89240000      -1.03780000      -0.85480000
C       -1.53630000      -2.07310000       0.07570000
C       -0.49030000      -3.06920000      -0.35210000
H        0.92210000       1.91970000      -0.30220000
H       -0.47500000       1.39480000      -1.27510000
H       -0.72510000       2.05210000       0.34960000
H        0.74030000      -0.56010000      -0.31210000
H        0.18740000       0.65340000       2.15900000
H       -1.97640000      -0.17090000       1.08200000
H       -2.40380000      -2.52160000       0.56530000
H        0.34950000      -2.58950000      -0.85820000
H       -0.10840000      -3.61430000       0.51760000
H       -0.92700000      -3.79890000      -1.04180000
