18
Properties=species:S:1:pos:R:3 gdb_62914=T pbc="F F F"
C       -0.15320000       1.59280000       0.39850000
C       -0.06710000       0.08480000       0.26290000
O       -1.34050000      -0.48650000       0.05800000
C        1.14040000      -0.54630000      -0.52440000
N        1.99800000      -0.10100000       0.64720000
C        0.77320000      -0.75090000       1.26840000
C        0.84740000      -1.89140000       0.20130000
C       -0.32490000      -2.75870000      -0.20440000
O       -0.48390000      -3.14860000      -1.33580000
H        0.82580000       2.02200000       0.60820000
H       -0.53790000       2.03290000      -0.52990000
H       -0.84860000       1.85460000       1.20170000
H       -1.69550000      -0.17270000      -0.78120000
H        1.44390000      -0.38620000      -1.55970000
H        2.79120000      -0.74140000       0.73510000
H        0.64540000      -0.82700000       2.34950000
H        1.73610000      -2.52580000       0.31200000
H       -0.99370000      -3.08300000       0.62160000
