25
Properties=species:S:1:pos:R:3 gdb_114864=T pbc="F F F"
C       -0.28360000       1.82080000      -0.48360000
C       -0.16390000       0.34760000      -0.07920000
C        0.74550000      -0.47980000      -0.99190000
C        2.23590000      -0.05240000      -1.00470000
C        3.00870000      -1.30850000      -1.46140000
C        3.91090000      -2.06410000      -0.43600000
C        3.06690000      -3.35300000      -0.65240000
C        2.01230000      -2.51470000      -1.42570000
C        0.80830000      -1.97890000      -0.63300000
H        0.68600000       2.32790000      -0.44610000
H       -0.66910000       1.91990000      -1.50480000
H       -0.96510000       2.36040000       0.18170000
H        0.21170000       0.27930000       0.95150000
H       -1.16420000      -0.10480000      -0.06760000
H        0.36380000      -0.39870000      -2.02130000
H        2.41260000       0.81230000      -1.65080000
H        2.54320000       0.24230000       0.00760000
H        3.50680000      -1.16620000      -2.42330000
H        4.97340000      -2.13560000      -0.68150000
H        3.82570000      -1.65690000       0.57600000
H        3.57420000      -4.08030000      -1.29210000
H        2.71650000      -3.87480000       0.24300000
H        1.69870000      -2.92050000      -2.39160000
H        0.98540000      -2.08310000       0.44680000
H       -0.12470000      -2.50670000      -0.85450000
