19
Properties=species:S:1:pos:R:3 gdb_110118=T pbc="F F F"
C        0.11730000       1.14100000      -0.48330000
N       -0.26230000       0.20680000       0.56930000
C       -1.46420000      -0.52010000       0.31990000
C       -1.59770000      -1.71790000      -0.60410000
C       -0.42650000      -2.29110000      -1.37770000
O       -0.44880000      -3.70560000      -1.44630000
C       -1.65890000      -1.90090000       0.92080000
C       -0.55220000      -2.55070000       1.56140000
N        0.36180000      -3.08000000       2.03790000
H        1.02930000       1.66500000      -0.18570000
H        0.28850000       0.67360000      -1.46710000
H       -0.67200000       1.89130000      -0.60540000
H        0.50590000      -0.39710000       0.83390000
H       -2.34800000       0.11300000       0.37580000
H       -2.56060000      -1.84670000      -1.09010000
H       -0.47930000      -1.93670000      -2.41220000
H        0.52150000      -1.92690000      -0.95910000
H       -0.19090000      -4.04440000      -0.58170000
H       -2.62080000      -2.12610000       1.36740000
