19
Properties=species:S:1:pos:R:3 gdb_79014=T pbc="F F F"
C       -0.19710000       1.59210000       0.00210000
C        0.03450000       0.09000000       0.01780000
C        1.17010000      -0.55540000      -0.83420000
C        2.47140000       0.05800000      -0.29960000
C        3.11190000      -0.99290000       0.58250000
O        2.44250000      -2.21770000       0.43220000
C        1.14460000      -1.74440000       0.19440000
C        0.78280000      -0.59370000       1.20300000
C        2.18530000       0.02970000       1.20560000
H        0.72910000       2.14380000       0.18860000
H       -0.59270000       1.91730000      -0.96660000
H       -0.92270000       1.88470000       0.76910000
H       -0.90920000      -0.43660000      -0.17140000
H        1.08240000      -0.70560000      -1.90990000
H        3.02830000       0.83510000      -0.80380000
H        4.17170000      -1.07510000       0.78240000
H        0.43920000      -2.55740000       0.04500000
H        0.30770000      -0.78230000       2.16530000
H        2.51300000       0.78410000       1.90680000
