25
Properties=species:S:1:pos:R:3 gdb_112810=T pbc="F F F"
C       -0.07210000       1.62840000       0.09510000
C        0.05160000       0.11030000      -0.07790000
C        0.69330000      -0.56600000       1.13000000
C       -0.07870000      -0.61840000       2.47750000
C        0.51720000      -2.03100000       2.72660000
C       -0.33620000      -3.08540000       3.41700000
C        0.84660000      -2.12240000       1.19750000
C       -0.14410000      -2.90850000       0.35350000
O        0.08910000      -4.29190000       0.59370000
H        0.91160000       2.09090000       0.23410000
H       -0.53870000       2.09360000      -0.77890000
H       -0.68080000       1.87880000       0.97050000
H       -0.94480000      -0.31340000      -0.25830000
H        0.64440000      -0.10620000      -0.97680000
H        1.67920000      -0.11530000       1.29890000
H        0.12260000       0.15950000       3.21890000
H       -1.16230000      -0.66490000       2.31520000
H        1.46340000      -1.92650000       3.26990000
H       -1.30330000      -3.21380000       2.92040000
H        0.16030000      -4.05960000       3.42290000
H       -0.53550000      -2.79350000       4.45480000
H        1.84480000      -2.50520000       0.96280000
H       -1.18130000      -2.63480000       0.60410000
H        0.00500000      -2.66630000      -0.71080000
H       -0.55700000      -4.79700000       0.09160000
