15
Properties=species:S:1:pos:R:3 gdb_3135=T pbc="F F F"
O        0.59480000       0.37010000       0.76340000
C       -0.12700000       0.20350000      -0.44340000
C       -1.45900000      -0.46580000      -0.24150000
C       -2.27960000      -0.50360000       1.01140000
C       -1.91740000      -1.79910000       0.30220000
C       -2.72090000      -1.89790000      -0.98660000
O       -2.30470000      -0.56320000      -1.39560000
H        0.13620000       1.03500000       1.28680000
H       -0.29940000       1.16060000      -0.96180000
H        0.50380000      -0.40590000      -1.09900000
H       -1.73190000      -0.34910000       1.93540000
H       -3.30040000      -0.12990000       1.00050000
H       -1.36140000      -2.59450000       0.77880000
H       -2.34120000      -2.64800000      -1.68930000
H       -3.81110000      -1.98430000      -0.90600000
