12
Properties=species:S:1:pos:R:3 gdb_15461=T pbc="F F F"
O       -0.01740000      -0.00450000       0.00400000
C        0.02360000       1.18860000       0.00950000
O       -1.10010000       1.97550000       0.02730000
C       -0.73900000       3.35270000       0.02990000
C        0.75640000       3.36870000       0.01170000
C        1.21170000       2.10810000      -0.00030000
C        2.53870000       1.62830000      -0.01900000
C        3.66270000       1.19930000      -0.03490000
H       -1.17780000       3.84290000      -0.84910000
H       -1.15610000       3.83390000       0.92420000
H        1.34480000       4.27610000       0.00910000
H        4.65230000       0.81350000      -0.04890000
