18
Properties=species:S:1:pos:R:3 gdb_22156=T pbc="F F F"
C       -0.02440000       1.43830000       0.24700000
C        0.07650000      -0.03040000      -0.04810000
C        0.24400000      -1.00860000       1.10130000
C        1.44750000      -0.76580000       1.89340000
C        2.44840000      -0.54260000       2.52620000
C        3.63610000      -0.29620000       3.34340000
O        3.36060000       0.39430000       4.55490000
N        0.00950000      -0.56800000      -1.20450000
O       -0.19130000       0.37720000      -2.22130000
H        0.31360000       2.02820000      -0.60550000
H       -1.06680000       1.71420000       0.44950000
H        0.56710000       1.69000000       1.13040000
H       -0.63520000      -0.93970000       1.75890000
H        0.25190000      -2.02200000       0.68750000
H        4.14970000      -1.25210000       3.53500000
H        4.34430000       0.33630000       2.79660000
H        2.66230000      -0.08940000       5.00820000
H       -0.16570000      -0.17140000      -3.01230000
