14
Properties=species:S:1:pos:R:3 gdb_18660=T pbc="F F F"
O        0.04750000       0.02920000       0.38720000
C       -0.01330000       1.18430000       0.03480000
C       -1.33480000       1.84200000      -0.34790000
N       -1.29460000       3.14200000      -1.00220000
C       -0.19240000       3.74870000      -1.13620000
N        1.12200000       3.32340000      -0.79400000
C        1.39750000       3.28970000       0.64780000
C        1.21730000       2.01720000      -0.11970000
H       -1.87800000       1.13340000      -0.98470000
H       -1.94990000       1.93450000       0.55770000
H       -0.19300000       4.73880000      -1.59260000
H        2.40120000       3.57730000       0.94430000
H        0.60210000       3.60360000       1.31870000
H        2.10920000       1.44520000      -0.35930000
