17
Properties=species:S:1:pos:R:3 gdb_33943=T pbc="F F F"
C       -0.00630000      -1.17650000      -0.06810000
C        0.02850000       0.02290000       0.01830000
C        0.04020000       1.44980000       0.11900000
N        0.31310000       2.27380000      -1.09560000
C        1.29010000       2.27220000      -0.00000000
C        1.15330000       3.44770000       0.95950000
N       -0.15490000       3.34510000       1.64710000
C       -1.35470000       3.49980000       0.80960000
C       -0.84820000       2.14390000       1.13860000
H       -0.02990000      -2.23560000      -0.14220000
H        0.63020000       1.65700000      -1.84090000
H        2.25840000       1.80510000      -0.15340000
H        1.93800000       3.38760000       1.72140000
H        1.24800000       4.41190000       0.45010000
H       -2.21640000       3.89580000       1.34060000
H       -1.24010000       3.82990000      -0.21730000
H       -1.34050000       1.50350000       1.86350000
