17
Properties=species:S:1:pos:R:3 gdb_85264=T pbc="F F F"
C        0.16290000       1.52740000       0.00310000
C        0.10220000       0.02080000       0.05230000
O        0.71300000      -0.55130000      -1.11610000
C        1.44490000      -1.63710000      -0.74210000
O        1.98640000      -2.37900000      -1.50850000
C        1.40790000      -1.67850000       0.75010000
C        1.13980000      -2.98140000       1.47080000
C        2.49270000      -2.31480000       1.55520000
O        0.83000000      -0.46970000       1.16420000
H        1.20300000       1.85380000      -0.06960000
H       -0.39490000       1.89780000      -0.86030000
H       -0.27970000       1.93900000       0.91390000
H       -0.93560000      -0.34680000       0.08760000
H        0.49420000      -2.91870000       2.33920000
H        1.03840000      -3.87540000       0.86610000
H        3.31860000      -2.74860000       1.00270000
H        2.75220000      -1.81740000       2.48270000
