19
Properties=species:S:1:pos:R:3 gdb_82507=T pbc="F F F"
C       -0.05990000       1.54030000       0.01410000
C       -0.06170000       0.03990000       0.11180000
C       -1.29980000      -0.76390000      -0.29710000
C       -1.27450000      -2.06730000       0.50830000
C       -0.18140000      -3.07450000       0.26560000
O        0.59830000      -3.13850000      -0.87760000
C       -0.00680000      -2.05850000       1.38330000
C        0.69820000      -0.76050000       1.09130000
O        1.18040000      -0.59850000      -0.27200000
H        0.89430000       1.94590000       0.35910000
H       -0.21170000       1.86230000      -1.02200000
H       -0.86510000       1.96830000       0.62010000
H       -2.19960000      -0.19070000      -0.05240000
H       -1.30910000      -0.93790000      -1.37970000
H       -2.22000000      -2.42880000       0.89930000
H       -0.41630000      -4.07890000       0.60880000
H        0.99610000      -2.26080000      -0.99070000
H       -0.00570000      -2.39460000       2.41410000
H        1.34500000      -0.31500000       1.84200000
