21
Properties=species:S:1:pos:R:3 gdb_70877=T pbc="F F F"
C       -0.14750000       1.44300000      -0.00920000
C        0.00490000      -0.04820000      -0.03520000
C        0.95000000      -0.88560000      -0.89620000
C        0.10640000      -2.12620000      -0.47610000
C       -0.00840000      -3.33830000      -1.36080000
C        0.40720000      -2.24890000       1.04780000
C       -0.32850000      -0.92390000       1.21670000
C       -1.06460000      -1.09440000      -0.09130000
O       -2.37660000      -0.96280000      -0.47080000
H        0.72960000       1.92980000       0.43320000
H       -0.27740000       1.84450000      -1.02070000
H       -1.02430000       1.73890000       0.57620000
H        0.82630000      -0.65120000      -1.95880000
H        2.01870000      -0.90420000      -0.64720000
H        0.95970000      -3.84440000      -1.46110000
H       -0.71980000      -4.06690000      -0.95490000
H       -0.34690000      -3.06710000      -2.36670000
H       -0.13930000      -3.07960000       1.50700000
H        1.46330000      -2.30460000       1.33750000
H       -0.67500000      -0.44710000       2.12560000
H       -2.90700000      -1.59750000       0.02410000
