21
Properties=species:S:1:pos:R:3 gdb_47552=T pbc="F F F"
O        0.02620000      -0.09700000      -0.02670000
C        0.02400000       1.11200000       0.02280000
C       -1.27700000       1.91160000       0.04580000
C       -1.54200000       2.80660000      -1.18720000
C       -0.46210000       3.86700000      -1.46880000
C        0.77870000       3.29070000      -2.13000000
C        2.17120000       3.70390000      -1.72060000
C        1.66920000       2.31950000      -1.38820000
C        1.32620000       1.91120000       0.03880000
H       -2.09200000       1.19220000       0.16140000
H       -1.26160000       2.54990000       0.94050000
H       -1.66880000       2.17300000      -2.07390000
H       -2.50510000       3.30390000      -1.02510000
H       -0.88060000       4.64150000      -2.12250000
H       -0.19920000       4.37820000      -0.53420000
H        0.64270000       3.07140000      -3.18620000
H        2.93270000       3.80950000      -2.48580000
H        2.26490000       4.41180000      -0.90220000
H        2.07010000       1.50250000      -1.98050000
H        1.21860000       2.79600000       0.67410000
H        2.11670000       1.28180000       0.45650000
