17
Properties=species:S:1:pos:R:3 gdb_51031=T pbc="F F F"
O       -0.67740000       1.38570000       0.87920000
C        0.05350000       1.11990000      -0.04140000
C        1.39160000       1.79310000      -0.27050000
C        1.28340000       2.89590000      -1.35180000
C        0.52870000       4.16070000      -0.83480000
O        1.77090000       4.85190000      -0.60740000
C        2.51000000       3.85860000      -1.33470000
C        0.88540000       2.36660000      -2.64330000
C        0.56230000       1.93190000      -3.71700000
H       -0.23710000       0.36990000      -0.80800000
H        1.71800000       2.24970000       0.66790000
H        2.12830000       1.04830000      -0.59310000
H       -0.08380000       4.64920000      -1.60170000
H       -0.05310000       4.02820000       0.08250000
H        3.39210000       3.50740000      -0.78780000
H        2.80470000       4.20390000      -2.33330000
H        0.27180000       1.55250000      -4.66570000
