19
Properties=species:S:1:pos:R:3 gdb_8680=T pbc="F F F"
C       -0.13700000       1.56450000       0.04450000
C        0.04540000       0.04610000      -0.00590000
C        0.80450000      -0.47020000      -1.24900000
N        2.14050000       0.13140000      -1.31300000
C        0.84740000      -2.02630000      -1.24000000
N        1.61790000      -2.51280000      -2.38190000
C        0.06930000      -0.07020000      -2.47260000
N       -0.52250000       0.18040000      -3.43340000
H        0.82580000       2.07870000       0.00270000
H       -0.73920000       1.91450000      -0.79910000
H       -0.64740000       1.85520000       0.96730000
H        0.60770000      -0.29690000       0.87300000
H       -0.92920000      -0.45270000       0.03540000
H        2.58800000       0.00760000      -0.40790000
H        2.68540000      -0.41180000      -1.98060000
H        1.36460000      -2.32680000      -0.32160000
H       -0.18120000      -2.41730000      -1.18380000
H        1.86060000      -3.48920000      -2.25920000
H        1.06440000      -2.44890000      -3.23120000
