17
Properties=species:S:1:pos:R:3 gdb_72297=T pbc="F F F"
O       -0.10230000       1.31910000       0.14540000
C        0.09400000      -0.05310000      -0.03320000
C        1.33490000      -0.68040000       0.71470000
C        1.19100000      -2.11650000       0.23180000
C        0.39660000      -2.07950000      -0.85990000
C       -1.12020000      -2.15280000      -0.79950000
C       -1.30330000      -0.88560000      -1.57480000
C       -1.30780000      -0.76400000      -0.06250000
C        0.23460000      -0.66710000      -1.46220000
H        0.74740000       1.75910000       0.02720000
H        2.23330000      -0.11690000       0.41330000
H        1.29090000      -0.64110000       1.80950000
H        1.16090000      -2.93250000       0.94800000
H       -1.81610000      -2.96260000      -0.61590000
H       -2.03430000      -0.58790000      -2.31170000
H       -2.14560000      -0.57260000       0.59790000
H        0.90600000      -0.26640000      -2.21910000
