25
Properties=species:S:1:pos:R:3 gdb_121924=T pbc="F F F"
C       -0.21070000       1.41930000       0.14780000
C        0.03030000      -0.08800000      -0.02420000
C        0.75490000      -0.42530000      -1.34220000
C       -0.02490000      -0.07840000      -2.61480000
C        0.68620000      -0.53860000      -3.88070000
O       -0.10760000      -0.15710000      -4.99530000
C        0.80220000      -0.64330000       1.16110000
C        0.09680000      -1.00040000       2.44390000
C        0.66440000      -2.08920000       1.56390000
H        0.73900000       1.96800000       0.14010000
H       -0.83730000       1.82840000      -0.64970000
H       -0.70510000       1.62610000       1.10190000
H       -0.94890000      -0.59000000      -0.04350000
H        1.72630000       0.09050000      -1.35430000
H        0.98280000      -1.49930000      -1.34250000
H       -1.01830000      -0.54400000      -2.58770000
H       -0.18880000       1.00190000      -2.69330000
H        1.68840000      -0.08130000      -3.93100000
H        0.83060000      -1.63140000      -3.85030000
H        0.33970000      -0.44640000      -5.79560000
H        1.79670000      -0.21520000       1.27590000
H        0.58940000      -0.78890000       3.38660000
H       -0.98290000      -0.89110000       2.47520000
H       -0.03770000      -2.70320000       1.00840000
H        1.54450000      -2.62340000       1.90490000
