21
Properties=species:S:1:pos:R:3 gdb_73480=T pbc="F F F"
C        0.04380000       1.49730000      -0.01190000
C        0.01360000      -0.01940000      -0.03810000
C        0.68630000      -0.64300000      -1.26820000
O        0.02400000      -1.89760000      -1.45890000
C       -0.68180000      -2.13860000      -0.24140000
C        0.35190000      -2.23580000       0.91980000
C        0.29690000      -0.75350000       1.34120000
C       -1.22330000      -0.61520000       1.63710000
C       -1.34810000      -0.78090000       0.10720000
H        1.07810000       1.86140000      -0.00350000
H       -0.44420000       1.91510000      -0.89960000
H       -0.45190000       1.91200000       0.87010000
H        0.54570000      -0.03140000      -2.16820000
H        1.76750000      -0.78750000      -1.12440000
H       -1.33030000      -3.00120000      -0.39320000
H        0.04210000      -2.89910000       1.73290000
H        1.31800000      -2.57920000       0.54220000
H        1.05610000      -0.38600000       2.03330000
H       -1.68060000      -1.37120000       2.28240000
H       -1.51950000       0.37820000       1.97760000
H       -2.23700000      -0.50570000      -0.46100000
