21
Properties=species:S:1:pos:R:3 gdb_101416=T pbc="F F F"
C        0.08810000       1.38840000       0.21820000
O       -0.06740000       0.00990000      -0.02870000
C        0.60120000      -0.46640000      -1.19010000
C        2.11790000      -0.56110000      -1.01160000
C       -0.01280000      -1.82800000      -1.49380000
C       -1.52450000      -1.92330000      -1.86390000
C       -1.18300000      -2.82350000      -3.09080000
C        0.29330000      -2.46800000      -2.86260000
O        1.28290000      -2.54740000      -3.53420000
H        1.12100000       1.65980000       0.47890000
H       -0.21760000       1.99360000      -0.65010000
H       -0.55800000       1.63730000       1.06390000
H        0.38030000       0.21440000      -2.03190000
H        2.56910000       0.42450000      -0.86700000
H        2.35530000      -1.17990000      -0.13990000
H        2.56580000      -1.01790000      -1.89830000
H        0.24500000      -2.52510000      -0.68630000
H       -2.17320000      -2.36380000      -1.10730000
H       -1.93420000      -0.95380000      -2.15600000
H       -1.37090000      -3.88890000      -2.92070000
H       -1.59400000      -2.55340000      -4.06680000
