17
Properties=species:S:1:pos:R:3 gdb_11596=T pbc="F F F"
C       -0.13540000       1.21250000       0.25640000
C       -0.24190000      -0.29130000       0.20650000
O        0.34160000      -1.05490000       0.93820000
O       -1.08080000      -0.67590000      -0.77730000
C       -1.26030000      -2.10030000      -0.95820000
C       -2.36040000      -2.64570000      -0.08900000
C       -2.25120000      -4.04170000       0.41100000
N       -2.12040000      -2.91120000       1.33620000
H        0.57700000       1.50120000       1.02780000
H        0.18060000       1.60120000      -0.71540000
H       -1.11640000       1.64370000       0.47610000
H       -1.50940000      -2.20990000      -2.01710000
H       -0.31340000      -2.60560000      -0.75070000
H       -3.34840000      -2.24220000      -0.30190000
H       -3.14810000      -4.64210000       0.53370000
H       -1.36230000      -4.60930000       0.14440000
H       -1.14090000      -2.73140000       1.54670000
