13
Properties=species:S:1:pos:R:3 gdb_24532=T pbc="F F F"
N       -0.02650000       1.32730000       0.00990000
C        1.15210000       2.01530000       0.00210000
C        2.34310000       1.32350000      -0.01360000
N        2.44620000      -0.02850000      -0.02220000
C        1.30350000      -0.67840000      -0.01460000
N        1.06340000      -2.01940000      -0.01980000
C       -0.26640000      -2.07310000      -0.00680000
N       -0.98680000      -0.89430000       0.00700000
C       -0.00340000      -0.01760000       0.00210000
H       -0.91480000       1.81390000       0.02150000
H        1.08800000       3.09390000       0.00880000
H        3.27210000       1.88260000      -0.01970000
H       -0.79360000      -3.01990000      -0.00690000
