18
Properties=species:S:1:pos:R:3 gdb_50227=T pbc="F F F"
O        0.02850000      -0.09760000       0.02950000
C        0.05750000       1.10440000       0.09620000
C        1.30140000       1.94550000       0.02250000
C        1.16700000       3.20400000      -0.91150000
C        1.36190000       4.14290000       0.30670000
C        1.46440000       2.92330000       1.24290000
C        2.88590000       3.40060000       1.57540000
C        3.74050000       3.59750000       0.39260000
N        2.74590000       4.64350000       0.69140000
H       -0.88350000       1.69170000       0.23060000
H        2.15560000       1.29200000      -0.16350000
H        1.89060000       3.27750000      -1.72610000
H        0.16510000       3.30100000      -1.34120000
H        0.63600000       4.94330000       0.44520000
H        0.80670000       2.78130000       2.10000000
H        3.27670000       3.47160000       2.58580000
H        4.75390000       3.94370000       0.57400000
H        3.64530000       2.97350000      -0.48990000
