18
Properties=species:S:1:pos:R:3 gdb_53078=T pbc="F F F"
C       -0.08280000       1.46120000       0.01170000
C       -0.01020000       0.00880000       0.01310000
C        0.06470000      -1.19650000       0.02160000
C        0.09390000      -2.61010000       0.01150000
C        1.16170000      -3.41350000       0.17360000
C        0.81110000      -4.88070000       0.07060000
C       -0.70250000      -4.86490000      -0.11560000
N       -1.43170000      -4.28190000       1.03070000
C       -1.14390000      -3.44610000      -0.16630000
H        0.47550000       1.88860000      -0.82930000
H       -1.11890000       1.80850000      -0.06750000
H        0.33750000       1.88060000       0.93290000
H        2.16540000      -3.06300000       0.38220000
H        1.31660000      -5.35710000      -0.78050000
H        1.10450000      -5.43840000       0.96850000
H       -1.18500000      -5.63690000      -0.70490000
H       -2.40150000      -4.59100000       0.98300000
H       -1.96710000      -3.09070000      -0.77580000
