20
Properties=species:S:1:pos:R:3 gdb_78380=T pbc="F F F"
C       -0.04420000       1.53580000       0.14500000
C        0.04650000       0.03810000      -0.06570000
C        0.44580000      -0.79920000      -1.21500000
C        1.73370000      -0.45380000      -1.97670000
C        2.14120000       1.03380000      -2.18350000
C        3.03930000       0.91050000      -0.89880000
O        3.00500000       1.87270000       0.12750000
C        2.46390000      -0.50450000      -0.61840000
N        1.19220000      -0.87480000       0.14190000
H        0.87360000       2.07720000      -0.05770000
H       -0.85730000       1.94460000      -0.46620000
H       -0.29740000       1.72260000       1.19420000
H       -0.79570000      -0.44650000       0.43400000
H       -0.18920000      -1.62430000      -1.53100000
H        1.97730000      -1.15170000      -2.77600000
H        2.70620000       1.23140000      -3.09800000
H        1.32100000       1.74860000      -2.12410000
H        4.07880000       0.74470000      -1.21990000
H        3.52590000       2.63220000      -0.15280000
H        3.20710000      -1.26230000      -0.36930000
