20
Properties=species:S:1:pos:R:3 gdb_96283=T pbc="F F F"
C       -0.24810000       1.46100000       0.09190000
C        0.01210000      -0.04940000      -0.04430000
C        0.61360000      -0.45300000      -1.40080000
C        2.00780000       0.09040000      -1.70980000
O        3.00670000      -0.44360000      -0.86460000
C        3.07040000       0.11380000       0.42660000
C        2.06670000      -0.41470000       1.46290000
O        2.44470000      -0.67140000       2.59230000
N        0.75810000      -0.59210000       1.09630000
H        0.67900000       2.04080000       0.07590000
H       -0.88450000       1.81840000      -0.72450000
H       -0.75490000       1.67470000       1.03730000
H       -0.96140000      -0.54940000       0.00900000
H        0.65620000      -1.54620000      -1.45130000
H       -0.07170000      -0.11480000      -2.18800000
H        2.29010000      -0.20230000      -2.72610000
H        2.02430000       1.19170000      -1.66930000
H        4.05340000      -0.12870000       0.83390000
H        2.98540000       1.21370000       0.38550000
H        0.20010000      -0.88830000       1.88580000
