21
Properties=species:S:1:pos:R:3 gdb_117407=T pbc="F F F"
C        0.01400000       1.61610000      -0.05440000
C       -0.00480000       0.08730000       0.01360000
C        0.67820000      -0.56390000      -1.18920000
C        0.67720000      -2.08620000      -1.15450000
O        0.17210000      -2.71090000      -0.24860000
C        1.35010000      -2.78690000      -2.32910000
C        1.29790000      -4.31910000      -2.21820000
C        1.94520000      -4.97870000      -3.34490000
C        2.48510000      -5.49940000      -4.28430000
H        1.03910000       2.00250000      -0.08470000
H       -0.50210000       1.98290000      -0.94900000
H       -0.48030000       2.05570000       0.81710000
H        0.48540000      -0.25690000       0.93050000
H       -1.03590000      -0.27630000       0.07710000
H        0.20280000      -0.24740000      -2.12920000
H        1.72180000      -0.22840000      -1.27740000
H        0.87460000      -2.45180000      -3.25960000
H        2.38950000      -2.44140000      -2.39680000
H        1.76700000      -4.62840000      -1.27770000
H        0.25310000      -4.63960000      -2.14130000
H        2.95850000      -5.97530000      -5.10670000
