13
Properties=species:S:1:pos:R:3 gdb_130627=T pbc="F F F"
O        0.02230000       0.00800000       0.00320000
C       -0.01680000       1.21080000       0.01030000
C       -1.31380000       2.09810000       0.03300000
C       -0.72000000       3.46480000       0.03200000
C        0.64600000       3.39510000       0.01270000
N        1.07820000       2.06950000      -0.00030000
N        1.20410000       4.61730000       0.01130000
N        0.21220000       5.48790000       0.02980000
N       -0.95140000       4.79440000       0.04220000
H       -1.92350000       1.85510000      -0.84290000
H       -1.89890000       1.84570000       0.92300000
H        2.02940000       1.74150000      -0.01550000
H       -1.81680000       5.30980000       0.05700000
