18
Properties=species:S:1:pos:R:3 gdb_23418=T pbc="F F F"
O       -0.18950000       1.31890000       0.20040000
N       -0.08520000      -0.07000000       0.36170000
C       -1.12000000      -0.67620000      -0.06360000
C       -2.41510000      -0.12620000      -0.61270000
C       -3.46830000      -1.14560000      -0.11240000
C       -2.73640000      -2.49780000      -0.02050000
C       -2.40610000      -3.19520000      -1.35520000
O       -1.02070000      -2.79540000      -1.28270000
C       -1.21520000      -2.17450000       0.01780000
H        0.63360000       1.63150000       0.59140000
H       -2.59920000       0.89680000      -0.28230000
H       -2.36880000      -0.11120000      -1.70860000
H       -3.81190000      -0.85190000       0.88520000
H       -4.35100000      -1.19280000      -0.75730000
H       -3.13270000      -3.14890000       0.75870000
H       -2.51190000      -4.28710000      -1.35270000
H       -2.90730000      -2.79270000      -2.24540000
H       -0.56970000      -2.61500000       0.78130000
