22
Properties=species:S:1:pos:R:3 gdb_105089=T pbc="F F F"
O        1.14800000       1.09340000      -0.33350000
C        0.83930000      -0.29060000      -0.28570000
C       -0.66050000      -0.59330000      -0.24210000
C       -1.55110000       0.37010000       0.51330000
C       -1.57910000       0.35040000      -0.99080000
C       -1.06620000      -2.05250000      -0.26610000
C       -0.09800000      -3.17950000      -0.09200000
N       -1.11820000      -2.92870000       0.91460000
C       -0.67490000      -2.42680000       2.20620000
H        1.00300000       1.40070000      -1.23280000
H        1.29190000      -0.82710000      -1.13310000
H        1.32650000      -0.66080000       0.62300000
H       -2.40270000      -0.03500000       1.04780000
H       -1.06540000       1.21580000       0.98610000
H       -1.14740000       1.19920000      -1.50950000
H       -2.44220000      -0.07900000      -1.48860000
H       -1.90880000      -2.24410000      -0.92850000
H       -0.20390000      -4.09400000      -0.67130000
H        0.93180000      -2.92910000       0.15760000
H        0.17580000      -1.72980000       2.16480000
H       -1.50500000      -1.91630000       2.70350000
H       -0.38320000      -3.27980000       2.82730000
