19
Properties=species:S:1:pos:R:3 gdb_53585=T pbc="F F F"
C       -0.02150000       1.41800000      -0.33540000
C       -0.04080000      -0.00520000      -0.02790000
C       -0.04750000      -1.18200000       0.22670000
C       -0.08060000      -2.60970000       0.53360000
C       -1.42400000      -3.24600000       0.21060000
C       -1.72870000      -3.73240000      -1.17230000
C       -1.52810000      -4.74540000      -0.05050000
C       -0.36590000      -5.58430000      -0.02960000
C        0.60410000      -6.29640000      -0.00270000
H        0.79780000       1.66780000      -1.01880000
H       -0.95590000       1.73540000      -0.81180000
H        0.10840000       2.02140000       0.57000000
H        0.70870000      -3.13410000      -0.01820000
H        0.14740000      -2.76620000       1.59640000
H       -2.25670000      -2.82500000       0.76590000
H       -2.73190000      -3.61370000      -1.56550000
H       -0.94040000      -3.66650000      -1.91380000
H       -2.43010000      -5.22050000       0.32450000
H        1.45830000      -6.92640000       0.01660000
