22
Properties=species:S:1:pos:R:3 gdb_120066=T pbc="F F F"
C        0.09240000       1.57900000       0.00360000
C       -0.00010000       0.05200000      -0.04050000
C       -1.42660000      -0.47230000       0.17190000
C       -1.50890000      -1.98610000       0.09780000
C       -2.83580000      -2.71480000      -0.11280000
C       -2.77880000      -2.39240000      -1.63820000
C       -2.93570000      -3.85280000      -2.06960000
C       -2.06080000      -3.87030000      -0.81470000
N       -1.27680000      -2.61370000      -1.28370000
H        1.12130000       1.92080000      -0.14690000
H       -0.52650000       2.03640000      -0.77660000
H       -0.25080000       1.97120000       0.96780000
H        0.37090000      -0.31890000      -1.00290000
H        0.65880000      -0.37800000       0.72560000
H       -1.79910000      -0.14830000       1.15410000
H       -2.09730000      -0.02210000      -0.57130000
H       -0.84270000      -2.44160000       0.84410000
H       -3.72270000      -2.78930000       0.52740000
H       -3.10490000      -1.48630000      -2.14950000
H       -3.93380000      -4.28980000      -1.98460000
H       -2.44460000      -4.13490000      -3.00470000
H       -1.53080000      -4.69620000      -0.33600000
