19
Properties=species:S:1:pos:R:3 gdb_33104=T pbc="F F F"
C        0.01420000       1.39860000      -0.02280000
O       -0.00880000      -0.00650000       0.00580000
C        0.66010000      -0.58560000      -1.09370000
C        0.58210000      -2.07270000      -0.98030000
C       -0.02800000      -2.81790000      -0.01010000
N        0.19420000      -4.13140000      -0.37630000
C        0.91770000      -4.12480000      -1.53520000
C        1.35050000      -5.36790000      -2.23870000
N        1.16660000      -2.89150000      -1.92260000
H        1.04300000       1.79230000       0.00510000
H       -0.47840000       1.79830000      -0.92390000
H       -0.52340000       1.75400000       0.85980000
H        0.20770000      -0.25220000      -2.04420000
H        1.71530000      -0.26160000      -1.12310000
H       -0.57780000      -2.54450000       0.87300000
H       -0.12170000      -4.94490000       0.12400000
H        0.49680000      -5.98320000      -2.54610000
H        1.90940000      -5.08480000      -3.13130000
H        1.99690000      -5.99090000      -1.60940000
