18
Properties=species:S:1:pos:R:3 gdb_55776=T pbc="F F F"
O       -0.22680000       0.13730000       0.52960000
C       -0.05330000       1.41020000       0.08410000
O        1.02890000       1.87420000      -0.12620000
C       -1.41640000       2.08310000      -0.06890000
C       -2.39140000       0.92790000       0.01810000
C       -3.33560000       0.58870000      -1.10860000
C       -3.87490000       1.08310000       0.21210000
N       -4.52710000       0.11020000       1.05340000
H       -4.57790000       0.44000000       2.01230000
H       -5.48220000      -0.04330000       0.74440000
C       -1.61710000      -0.17120000       0.73730000
H       -1.53240000       2.79960000       0.75450000
H       -1.44970000       2.64810000      -1.00210000
H       -3.37970000       1.25630000      -1.96280000
H       -3.48770000      -0.46110000      -1.33640000
H       -4.24700000       2.11080000       0.21900000
H       -1.80490000      -1.17100000       0.34360000
H       -1.81160000      -0.18290000       1.81610000
