10
Properties=species:S:1:pos:R:3 gdb_337=T pbc="F F F"
O        0.01710000       1.50950000       0.09550000
C        0.01880000       0.11010000       0.08040000
C        0.68370000      -0.41030000      -1.20120000
O        1.14050000       0.35120000      -2.01330000
C        0.71630000      -0.48880000       1.22410000
C        1.30550000      -1.00320000       2.13610000
H        0.53930000       1.77520000      -0.67920000
H       -1.01960000      -0.26580000       0.07060000
H        0.72400000      -1.50950000      -1.31870000
H        1.81650000      -1.44470000       2.95630000
