19
Properties=species:S:1:pos:R:3 gdb_106823=T pbc="F F F"
O       -0.01980000       1.29510000      -0.46630000
C       -0.01830000      -0.01710000       0.08860000
C       -1.42520000      -0.53320000       0.07250000
C       -2.00430000      -1.13400000      -1.19760000
C       -1.74630000      -2.00560000       0.00140000
O       -0.72620000      -2.95530000       0.00470000
C       -2.92230000      -2.20960000       0.94760000
O       -3.49610000      -0.92210000       1.12050000
C       -2.45210000       0.04940000       1.02860000
H        0.87490000       1.64350000      -0.40560000
H        0.62660000      -0.70010000      -0.48270000
H        0.35620000      -0.00310000       1.12520000
H       -3.02930000      -0.90090000      -1.46840000
H       -1.31270000      -1.23430000      -2.02720000
H       -0.95090000      -3.63990000      -0.63400000
H       -3.70770000      -2.86940000       0.56230000
H       -2.54240000      -2.62940000       1.89360000
H       -1.98510000       0.22650000       2.01190000
H       -2.90570000       0.98390000       0.68710000
