18
Properties=species:S:1:pos:R:3 gdb_89969=T pbc="F F F"
C       -0.83600000       1.25900000      -0.02730000
C        0.02550000       0.00730000       0.02860000
N        1.27050000       0.02730000      -0.79790000
C        2.13230000      -0.41430000       0.30960000
C        2.88340000      -1.77350000       0.33470000
O        4.12230000      -1.13230000       0.67050000
C        3.53130000       0.17960000       0.56200000
C        0.94190000      -0.19450000       1.25030000
O        0.80140000      -0.16440000       2.43590000
H       -0.22580000       2.15220000       0.13110000
H       -1.32790000       1.34890000      -1.00070000
H       -1.60870000       1.21830000       0.74680000
H       -0.59310000      -0.89030000      -0.12600000
H        1.26440000      -0.58380000      -1.60710000
H        2.56490000      -2.49370000       1.09790000
H        2.91840000      -2.27140000      -0.64580000
H        3.92060000       0.75020000      -0.29020000
H        3.64300000       0.75960000       1.48530000
