18
Properties=species:S:1:pos:R:3 gdb_89202=T pbc="F F F"
C       -0.69180000       1.27500000      -0.09750000
C        0.06330000      -0.03280000       0.04730000
N        1.30960000      -0.14880000      -0.77620000
C        2.09180000      -0.63450000       0.39970000
C        2.86380000      -1.92030000       0.28180000
C        0.89640000      -0.28930000       1.32270000
O        1.60550000       0.88850000       1.81300000
C        2.73760000       0.59550000       1.07080000
O        3.76780000       1.18350000       1.06070000
H       -0.03810000       2.11950000       0.13080000
H       -1.05930000       1.39030000      -1.12180000
H       -1.55270000       1.30320000       0.57910000
H       -0.61030000      -0.88770000      -0.10500000
H        1.25110000      -0.83320000      -1.52200000
H        3.66590000      -1.80550000      -0.45520000
H        3.32450000      -2.19510000       1.23520000
H        2.21490000      -2.74150000      -0.03990000
H        0.50140000      -0.88330000       2.14460000
