17
Properties=species:S:1:pos:R:3 gdb_34125=T pbc="F F F"
N       -0.03480000      -1.11980000       0.05000000
C       -0.01900000       0.03600000       0.05190000
C        0.00550000       1.48320000       0.02640000
C       -0.85030000       2.22860000      -1.03640000
C       -0.10150000       3.56220000      -0.86160000
C        1.31790000       3.18090000      -1.35440000
C        1.36170000       2.32590000      -0.08380000
C        0.43020000       3.32530000       0.64580000
N       -0.27500000       2.21520000       1.29610000
H       -0.76510000       1.82100000      -2.04650000
H       -1.90450000       2.24230000      -0.74640000
H       -0.59800000       4.47900000      -1.17310000
H        1.41110000       2.70360000      -2.33390000
H        2.02930000       4.00810000      -1.27790000
H        2.24900000       1.88600000       0.36370000
H        0.75890000       4.17540000       1.24000000
H       -1.27080000       2.35790000       1.47080000
