19
Properties=species:S:1:pos:R:3 gdb_122870=T pbc="F F F"
O       -0.25250000       1.44220000       0.01280000
C       -0.05430000       0.03800000       0.00300000
C       -1.42970000      -0.61870000       0.01290000
C       -1.33850000      -2.13510000       0.00330000
O       -2.68250000      -2.65080000       0.01380000
C       -2.79250000      -3.99570000       0.00700000
O       -1.86490000      -4.75660000      -0.00640000
C       -4.26570000      -4.37270000       0.01860000
O       -4.37500000      -5.77230000       0.01500000
H        0.60970000       1.86790000       0.00710000
H        0.50640000      -0.28080000      -0.89110000
H        0.52370000      -0.29070000       0.88240000
H       -1.97730000      -0.28600000       0.90100000
H       -1.99460000      -0.27590000      -0.86040000
H       -0.82060000      -2.51010000      -0.88610000
H       -0.80300000      -2.52020000       0.87790000
H       -4.71950000      -3.90690000       0.90770000
H       -4.73450000      -3.90110000      -0.85960000
H       -5.31030000      -5.99480000       0.02000000
