19
Properties=species:S:1:pos:R:3 gdb_119341=T pbc="F F F"
C        0.08950000       1.57460000       0.06860000
C        0.17980000       0.06610000      -0.06610000
O        0.47620000      -0.47950000       1.22480000
C        0.60930000      -1.82910000       1.23540000
C        1.33020000      -2.72860000       2.21170000
C        0.08630000      -3.58070000       2.45010000
C       -0.37350000      -3.08990000       1.05340000
O        0.57460000      -3.70020000       0.13990000
C        1.56610000      -2.82790000       0.66920000
H        1.03590000       1.98620000       0.43070000
H       -0.13800000       2.02740000      -0.90100000
H       -0.69800000       1.85250000       0.77480000
H       -0.76740000      -0.35410000      -0.43320000
H        0.96820000      -0.22590000      -0.77360000
H        2.13240000      -2.46900000       2.89030000
H        0.19520000      -4.66370000       2.56130000
H       -0.53320000      -3.16810000       3.25030000
H       -1.40430000      -3.14000000       0.70960000
H        2.53560000      -2.76530000       0.19380000
