18
Properties=species:S:1:pos:R:3 gdb_102832=T pbc="F F F"
O        0.13970000       1.42430000      -0.03420000
C        0.06810000       0.01260000      -0.07610000
C       -1.37690000      -0.50890000      -0.02480000
N       -2.01980000      -0.15860000       1.23390000
C       -1.94830000      -0.94610000       2.34020000
O       -1.28670000      -1.95920000       2.42740000
C       -2.21590000       0.04010000      -1.17440000
C       -3.66850000      -0.14490000      -1.24350000
O       -3.10370000       1.12080000      -0.86880000
H       -0.21830000       1.70380000       0.81520000
H        0.52850000      -0.29080000      -1.02300000
H        0.63570000      -0.45610000       0.73940000
H       -1.33660000      -1.60320000      -0.09040000
H       -2.65990000       0.62300000       1.20210000
H       -2.56490000      -0.55030000       3.17130000
H       -1.66920000       0.16880000      -2.10740000
H       -4.16760000      -0.15920000      -2.21010000
H       -4.17790000      -0.67930000      -0.44360000
