18
Properties=species:S:1:pos:R:3 gdb_98626=T pbc="F F F"
C       -0.51790000       1.44370000       0.32250000
O       -0.38030000       0.01850000       0.37420000
C        0.85820000      -0.43160000       0.66940000
O        1.79290000       0.30360000       0.88840000
C        0.85240000      -1.92410000       0.66620000
C        1.97440000      -2.77220000       0.17910000
C        3.35950000      -2.19750000       0.46700000
C        2.92020000      -2.15800000       1.95120000
N        1.57980000      -2.78980000       1.63440000
H        0.14720000       1.86890000      -0.43330000
H       -1.56000000       1.63110000       0.06430000
H       -0.27720000       1.88890000       1.29110000
H       -0.13620000      -2.32900000       0.47870000
H        1.76090000      -3.60850000      -0.48070000
H        4.15360000      -2.92110000       0.27430000
H        3.60530000      -1.24700000      -0.00730000
H        3.47050000      -2.84880000       2.59240000
H        2.85740000      -1.17910000       2.42410000
