23
Properties=species:S:1:pos:R:3 gdb_108668=T pbc="F F F"
C        0.11230000       1.53990000      -0.46160000
C       -0.04600000       0.06430000      -0.18770000
C       -1.20750000      -0.56480000       0.06170000
C       -2.54660000       0.12210000       0.18480000
O       -3.13790000      -0.09160000       1.47040000
C       -1.28670000      -2.06480000       0.29010000
C       -0.03050000      -2.82420000      -0.14450000
C        1.22070000      -2.09590000       0.34730000
C        1.27360000      -0.68450000      -0.24390000
H        0.60790000       1.69300000      -1.42950000
H       -0.82410000       2.09730000      -0.48160000
H        0.76500000       2.00350000       0.28980000
H       -2.49090000       1.19310000      -0.03970000
H       -3.25920000      -0.31920000      -0.52320000
H       -2.51810000       0.25220000       2.12260000
H       -1.49470000      -2.25370000       1.35170000
H       -2.16620000      -2.45410000      -0.24000000
H       -0.06130000      -3.85220000       0.23250000
H       -0.00080000      -2.89060000      -1.24030000
H        1.19510000      -2.03310000       1.44320000
H        2.12950000      -2.64830000       0.08490000
H        1.60540000      -0.73070000      -1.29300000
H        2.04010000      -0.08820000       0.26930000
