23
Properties=species:S:1:pos:R:3 gdb_118835=T pbc="F F F"
C       -0.07510000       1.50820000      -0.41210000
C       -0.04880000       0.13590000       0.27030000
C       -1.39600000      -0.55590000       0.24400000
C       -1.84540000      -1.31960000      -0.99140000
C       -1.51720000      -2.05480000       0.28910000
O       -0.29340000      -2.75210000       0.34280000
C       -2.62650000      -2.69670000       1.10090000
C       -3.03790000      -4.07840000       0.58390000
O       -4.10130000      -4.65090000       1.32770000
H        0.90810000       1.98760000      -0.37360000
H       -0.36640000       1.41990000      -1.46420000
H       -0.79220000       2.18030000       0.07260000
H        0.69360000      -0.51080000      -0.20630000
H        0.27570000       0.25100000       1.31270000
H       -2.18390000      -0.01920000       0.76890000
H       -2.87990000      -1.25170000      -1.31180000
H       -1.12590000      -1.40340000      -1.80040000
H       -0.32860000      -3.46890000      -0.29850000
H       -2.28800000      -2.78850000       2.14270000
H       -3.50920000      -2.04790000       1.10300000
H       -3.40620000      -3.99850000      -0.44490000
H       -2.16190000      -4.74670000       0.56720000
H       -3.79540000      -4.76790000       2.23290000
