20
Properties=species:S:1:pos:R:3 gdb_58140=T pbc="F F F"
C        0.08770000       1.49980000       0.03400000
N        0.01370000       0.04070000       0.05930000
C        0.85890000      -0.52480000       1.10700000
C       -1.33620000      -0.51150000      -0.05260000
C       -1.31910000      -2.06220000      -0.13010000
C       -2.29420000      -0.15230000       1.11760000
O       -1.96260000       0.42070000       2.11950000
C       -1.99720000      -0.01320000      -1.26990000
C       -2.60810000       0.37020000      -2.23170000
H        1.12990000       1.79160000      -0.13300000
H       -0.50490000       1.88530000      -0.79850000
H       -0.25890000       1.97570000       0.96310000
H        0.50370000      -0.31930000       2.12730000
H        0.96660000      -1.60450000       0.98240000
H        1.85800000      -0.09010000       1.00240000
H       -1.00050000      -2.50660000       0.81530000
H       -2.31900000      -2.43310000      -0.36520000
H       -0.63580000      -2.37180000      -0.92380000
H       -3.34450000      -0.48820000       0.95420000
H       -3.12420000       0.71390000      -3.09440000
