16
Properties=species:S:1:pos:R:3 gdb_53916=T pbc="F F F"
C       -1.02490000       0.62220000       0.54300000
C        0.27010000       0.19900000      -0.10440000
O        1.35870000       0.49020000       0.30750000
C        0.15380000      -0.70870000      -1.40520000
C        1.53650000      -0.83540000      -2.08450000
C       -0.34490000      -2.01590000      -0.96980000
C       -0.71580000      -3.08610000      -0.57030000
C       -0.80630000      -0.08550000      -2.33150000
N       -1.54070000       0.44050000      -3.05230000
H       -1.53070000       1.35250000      -0.09760000
H       -1.69940000      -0.23130000       0.65280000
H       -0.81490000       1.07210000       1.51340000
H        2.24630000      -1.25250000      -1.37030000
H        1.46430000      -1.48830000      -2.95580000
H        1.89050000       0.14910000      -2.39560000
H       -1.05150000      -4.03670000      -0.23440000
