19
Properties=species:S:1:pos:R:3 gdb_104671=T pbc="F F F"
O        0.16800000       1.21360000      -0.33940000
C        0.01450000      -0.04320000       0.33240000
C       -1.40690000      -0.55640000       0.21630000
C       -2.42530000       0.25280000       0.99840000
O       -2.59860000       1.55200000       0.46160000
C       -1.86070000      -1.04380000      -1.13820000
O       -0.86790000      -1.03720000      -2.14490000
C       -1.65440000      -2.04290000      -0.02660000
O       -0.58750000      -2.93140000      -0.14260000
H        0.04260000       1.03000000      -1.27860000
H        0.73650000      -0.77710000      -0.03730000
H        0.25230000       0.15170000       1.38320000
H       -3.40840000      -0.23320000       0.97190000
H       -2.11470000       0.29170000       2.05660000
H       -1.71330000       1.87430000       0.23820000
H       -2.85730000      -0.77310000      -1.47750000
H       -1.21140000      -1.50650000      -2.91270000
H       -2.51610000      -2.50070000       0.45170000
H       -0.15980000      -2.73380000      -0.98730000
