18
Properties=species:S:1:pos:R:3 gdb_114409=T pbc="F F F"
C       -0.22490000       1.25250000       0.05180000
O        0.34930000      -0.02430000      -0.13260000
C        0.80370000      -0.61160000       1.05350000
C       -0.24230000      -1.20600000       2.05390000
C        0.41920000      -2.61260000       1.89030000
C        1.40650000      -2.02040000       0.82720000
N        0.72010000      -2.83160000      -0.17540000
C       -0.21930000      -3.35670000       0.70000000
O       -1.17980000      -4.05640000       0.53160000
H        0.49810000       1.96190000       0.48330000
H       -0.53290000       1.61390000      -0.93180000
H       -1.10660000       1.21480000       0.70770000
H        1.51480000       0.05170000       1.57020000
H       -0.16880000      -0.79590000       3.06270000
H       -1.28380000      -1.15980000       1.72810000
H        0.71660000      -3.16770000       2.77630000
H        2.49090000      -2.13170000       0.84580000
H        0.59540000      -2.62400000      -1.15740000
