21
Properties=species:S:1:pos:R:3 gdb_59428=T pbc="F F F"
C        0.22510000       1.53520000       0.23080000
C       -0.07290000       0.04770000       0.03470000
O       -1.47680000      -0.21380000       0.10930000
C        0.52700000      -0.49710000      -1.24520000
C        1.91120000      -1.14470000      -1.24970000
C        0.68060000      -1.96920000      -1.43900000
C        0.10740000      -3.12130000      -0.61950000
C       -0.19580000      -3.73560000      -2.00330000
O        0.37960000      -2.59550000      -2.68650000
H        1.30380000       1.71810000       0.26430000
H       -0.18710000       2.12320000      -0.59850000
H       -0.22350000       1.89460000       1.16080000
H        0.34440000      -0.51160000       0.88130000
H       -1.89100000       0.19740000      -0.65750000
H        0.27400000       0.06150000      -2.14580000
H        2.53980000      -0.98140000      -2.11840000
H        2.44710000      -1.21980000      -0.30730000
H        0.82760000      -3.67240000      -0.01180000
H       -0.76550000      -2.85900000      -0.02090000
H        0.33950000      -4.66110000      -2.24330000
H       -1.25710000      -3.85890000      -2.24650000
