20
Properties=species:S:1:pos:R:3 gdb_59030=T pbc="F F F"
C        0.03500000       1.54200000       0.02400000
C       -0.02620000       0.00940000       0.03300000
O        0.68740000      -0.52570000       1.15040000
C       -1.43550000      -0.51510000      -0.01220000
C       -2.00680000      -1.25500000      -0.96550000
C       -3.44580000      -1.56760000      -0.62470000
N       -3.68170000      -0.97660000       0.71390000
C       -2.86840000      -1.55320000       1.78730000
C       -2.41810000      -0.30630000       1.10010000
H        1.07750000       1.86900000       0.06600000
H       -0.42880000       1.94930000      -0.87970000
H       -0.48860000       1.96340000       0.88990000
H        0.51290000      -0.36940000      -0.84170000
H        0.23040000      -0.24760000       1.95190000
H       -1.51410000      -1.61640000      -1.86130000
H       -4.14660000      -1.11740000      -1.34090000
H       -3.65930000      -2.64410000      -0.60850000
H       -3.33020000      -1.50560000       2.77030000
H       -2.29480000      -2.45570000       1.58550000
H       -2.49930000       0.65900000       1.59470000
