18
Properties=species:S:1:pos:R:3 gdb_42341=T pbc="F F F"
O        0.14560000       0.16580000       0.35500000
C       -0.01010000       1.35910000       0.21220000
C        1.13230000       2.31730000       0.34620000
C        1.99740000       2.14600000       1.55980000
N        2.49000000       1.76370000       0.24460000
C       -1.35110000       1.97540000      -0.15630000
C       -1.57910000       2.10600000      -1.69140000
C       -2.69500000       1.06870000      -1.44540000
O       -2.45440000       1.07890000      -0.02160000
H        0.99650000       3.31340000      -0.06650000
H        2.46030000       3.02540000       1.99810000
H        1.71030000       1.36350000       2.25660000
H        2.38160000       0.75310000       0.14370000
H       -1.49750000       2.90260000       0.41540000
H       -1.91830000       3.08990000      -2.01600000
H       -0.75230000       1.77820000      -2.32300000
H       -3.71290000       1.39250000      -1.68880000
H       -2.51610000       0.07810000      -1.87800000
