13
Properties=species:S:1:pos:R:3 gdb_48027=T pbc="F F F"
O       -0.03080000      -0.15370000       0.00130000
C       -0.00160000       1.05490000       0.00700000
C        1.20790000       1.84020000       0.00000000
C        2.19880000       2.52800000      -0.00550000
C        3.41610000       3.33720000      -0.01250000
C        3.16870000       4.77660000      -0.00250000
C        2.97500000       5.96930000       0.00570000
C        2.75560000       7.31240000       0.01490000
C        2.56190000       8.50370000       0.02310000
H       -0.93120000       1.65870000       0.01830000
H        4.03250000       3.05990000       0.85490000
H        4.01620000       3.06920000      -0.89400000
H        2.39050000       9.55170000       0.03030000
