12
Properties=species:S:1:pos:R:3 gdb_21480=T pbc="F F F"
N       -0.10750000       1.34320000      -0.11770000
C        0.06510000      -0.01610000      -0.02730000
N        1.15620000      -0.68390000       0.01150000
C       -1.19080000      -0.79140000      -0.01670000
C       -1.43110000      -2.13230000      -0.00870000
N       -2.79310000      -2.28840000       0.00930000
N       -3.38020000      -1.17920000       0.01350000
O       -2.36010000      -0.15310000      -0.00400000
H        0.68180000       1.93750000       0.07460000
H       -1.01830000       1.73080000       0.06800000
H        1.97320000      -0.07140000      -0.00170000
H       -0.74380000      -2.95870000      -0.01420000
