16
Properties=species:S:1:pos:R:3 gdb_4459=T pbc="F F F"
C       -0.15090000       1.52970000       0.12900000
C       -0.01960000       0.05270000      -0.01500000
C        0.04280000      -0.78760000      -1.09370000
C       -0.00560000      -0.45690000      -2.54920000
N        0.16790000      -2.11340000      -0.67700000
C        0.17900000      -2.05280000       0.62340000
O        0.28320000      -3.08410000       1.48130000
N        0.07060000      -0.78950000       1.10010000
H        0.70470000       1.97500000       0.65340000
H       -0.20910000       1.99820000      -0.85570000
H       -1.05560000       1.81550000       0.68150000
H        0.90310000      -0.79440000      -3.06050000
H       -0.85040000      -0.95480000      -3.03850000
H       -0.10600000       0.61900000      -2.71470000
H        0.34780000      -3.87740000       0.93490000
H        0.05980000      -0.52130000       2.06910000
