20
Properties=species:S:1:pos:R:3 gdb_119596=T pbc="F F F"
C        0.09820000       1.41340000      -0.01100000
O        0.20570000       0.01260000       0.06890000
C        0.52030000      -0.58500000      -1.17300000
C        0.54100000      -2.07910000      -0.97920000
C        1.79070000      -2.81360000      -0.63020000
N        1.24390000      -2.90650000      -1.99040000
C        0.39260000      -4.09570000      -2.22950000
C       -0.79990000      -3.94270000      -1.30950000
C       -0.71930000      -2.80050000      -0.62840000
H        1.04310000       1.87820000      -0.33460000
H       -0.69230000       1.72400000      -0.71290000
H       -0.15150000       1.78070000       0.98740000
H       -0.23280000      -0.31180000      -1.93210000
H        1.49950000      -0.24250000      -1.54310000
H        2.73700000      -2.28180000      -0.56570000
H        1.69550000      -3.67150000       0.03170000
H        0.09480000      -4.11870000      -3.28650000
H        0.96340000      -5.01460000      -2.04330000
H       -1.58470000      -4.68560000      -1.22480000
H       -1.43090000      -2.41420000       0.08940000
