22
Properties=species:S:1:pos:R:3 gdb_118646=T pbc="F F F"
C       -0.03410000       1.57160000      -0.01610000
C       -0.00860000       0.04110000      -0.00770000
C        0.72320000      -0.52760000       1.21240000
C        0.77480000      -2.07120000       1.24970000
C        1.61650000      -2.58540000       2.42660000
O        1.74280000      -3.97810000       2.30450000
C        2.42040000      -4.57120000       3.38910000
C       -0.57570000      -2.64260000       1.30430000
N       -1.65350000      -3.05710000       1.35260000
H        0.97950000       1.98790000      -0.02550000
H       -0.55840000       1.95230000      -0.89750000
H       -0.54530000       1.96380000       0.86990000
H       -1.03370000      -0.34610000      -0.02790000
H        0.47680000      -0.32480000      -0.92190000
H        1.75690000      -0.16060000       1.22590000
H        0.24820000      -0.16420000       2.13210000
H        1.24660000      -2.43810000       0.32940000
H        2.60380000      -2.09430000       2.39880000
H        1.13660000      -2.31200000       3.38070000
H        3.44990000      -4.19140000       3.48340000
H        1.89730000      -4.39270000       4.34090000
H        2.45540000      -5.64610000       3.19990000
