17
Properties=species:S:1:pos:R:3 gdb_37351=T pbc="F F F"
C       -0.01880000       1.52720000       0.01930000
C        1.38670000       2.09070000      -0.03470000
C        2.45990000       1.30710000      -0.14780000
C        2.24640000      -0.19260000      -0.21100000
O        1.01720000      -0.46060000      -0.89040000
C        0.01130000      -0.01610000       0.02100000
C        0.51440000      -0.54010000       1.36600000
O        1.12090000      -1.83490000       1.27730000
C        1.96110000      -0.68440000       1.21530000
H       -0.54490000       1.90180000       0.90810000
H       -0.59240000       1.88830000      -0.84410000
H        1.48690000       3.17260000      -0.00660000
H        3.46730000       1.70920000      -0.18190000
H        3.04050000      -0.72610000      -0.73770000
H       -0.93870000      -0.45070000      -0.29950000
H        0.01700000      -0.29250000       2.29910000
H        2.67730000      -0.54330000       2.01890000
