19
Properties=species:S:1:pos:R:3 gdb_39515=T pbc="F F F"
C       -0.05930000       1.55200000       0.06720000
C        1.39720000       1.95860000      -0.01500000
C        2.18120000       0.93550000      -0.37610000
C        3.52700000       0.65170000       0.22750000
C        3.17520000      -0.12940000       1.50090000
C        1.98830000      -0.72740000       1.67310000
C        0.99960000      -0.91870000       0.56490000
C        0.01360000       0.04560000      -0.16510000
C        1.36330000      -0.27380000      -0.74160000
H       -0.46570000       1.81730000       1.05230000
H       -0.71430000       2.03050000      -0.67580000
H        1.76390000       2.87850000       0.43020000
H        4.19740000       0.07020000      -0.41920000
H        4.05830000       1.57050000       0.49960000
H        3.90640000      -0.12450000       2.30530000
H        1.76950000      -1.21180000       2.62170000
H        0.61860000      -1.93800000       0.51780000
H       -0.87070000      -0.45920000      -0.54000000
H        1.55550000      -0.84000000      -1.64780000
