18
Properties=species:S:1:pos:R:3 gdb_35429=T pbc="F F F"
N       -0.26760000      -1.12640000      -0.47120000
C       -0.14200000      -0.00060000      -0.23750000
C        0.01470000       1.42680000       0.05460000
C       -0.68780000       1.79200000       1.40720000
C        0.33830000       1.84290000       2.53750000
C        1.44900000       0.78140000       2.39240000
C        2.06380000       1.86870000       1.48610000
C        1.53060000       1.82510000       0.05530000
O        1.30140000       2.88290000       2.20170000
H       -0.48960000       1.95560000      -0.76010000
H       -1.14180000       2.78350000       1.32230000
H       -1.48680000       1.07600000       1.62110000
H       -0.12250000       2.00360000       3.51540000
H        2.01450000       0.66640000       3.31760000
H        1.20680000      -0.19510000       1.97100000
H        3.14040000       2.05230000       1.52700000
H        2.10230000       1.12950000      -0.56620000
H        1.64170000       2.82500000      -0.37390000
