17
Properties=species:S:1:pos:R:3 gdb_42859=T pbc="F F F"
O        0.00180000       0.02880000       0.05370000
C       -0.01490000       1.22320000       0.00780000
C       -1.13560000       2.27780000       0.08200000
C       -0.03310000       3.22090000       0.67670000
C        1.07870000       2.30760000       0.05340000
C        1.49580000       2.73770000      -1.33760000
C        0.66380000       3.05050000      -2.34190000
C       -0.80270000       3.03080000      -2.32300000
C       -1.59980000       2.69610000      -1.29770000
H       -1.98030000       2.02310000       0.72360000
H       -0.05140000       4.25620000       0.33780000
H       -0.01840000       3.17530000       1.76690000
H        1.94620000       2.07580000       0.67290000
H        2.56520000       2.79890000      -1.51420000
H        1.11030000       3.35470000      -3.28460000
H       -1.28140000       3.32250000      -3.25380000
H       -2.67470000       2.72850000      -1.44660000
