21
Properties=species:S:1:pos:R:3 gdb_36971=T pbc="F F F"
C       -0.18920000       1.49710000      -0.15400000
O       -0.15240000       0.09380000       0.00430000
C       -1.43100000      -0.48040000       0.18040000
C       -1.27760000      -1.96150000       0.38970000
C       -2.34140000      -2.87770000      -0.09190000
N       -1.02710000      -2.85100000      -0.75190000
C        1.20880000       2.00040000      -0.38450000
C        1.58590000       3.34950000       0.10630000
N        2.14150000       2.14440000       0.74100000
H       -0.83620000       1.76980000      -1.00660000
H       -0.61910000       1.97680000       0.74430000
H       -1.93940000      -0.02500000       1.04870000
H       -2.06650000      -0.28850000      -0.70340000
H       -0.71610000      -2.23150000       1.28130000
H       -2.56260000      -3.78880000       0.45610000
H       -3.19660000      -2.44130000      -0.60320000
H       -1.07840000      -2.32000000      -1.61850000
H        1.67710000       1.62130000      -1.29010000
H        2.30170000       3.94880000      -0.44850000
H        0.83340000       3.92630000       0.63950000
H        1.65730000       1.95100000       1.61490000
