20
Properties=species:S:1:pos:R:3 gdb_107926=T pbc="F F F"
C        0.09090000       1.28730000      -0.15260000
O       -0.04840000      -0.06920000       0.23860000
C       -1.33630000      -0.53350000       0.15070000
C       -2.51290000      -0.27040000       1.09320000
C       -3.17700000      -1.48360000       0.36450000
C       -1.73430000      -1.97450000      -0.04060000
C       -1.95700000      -1.04000000      -1.19230000
N       -3.40760000      -1.09850000      -1.06110000
C       -4.19830000       0.08410000      -1.36900000
H        1.15410000       1.52920000      -0.09180000
H       -0.26120000       1.44490000      -1.18130000
H       -0.46630000       1.95930000       0.51480000
H       -2.25030000      -0.54490000       2.11830000
H       -3.03100000       0.69380000       1.08720000
H       -3.95790000      -2.06670000       0.85000000
H       -1.20880000      -2.91290000       0.05100000
H       -1.43140000      -0.97480000      -2.13780000
H       -4.22550000       0.21640000      -2.45600000
H       -5.22700000      -0.07250000      -1.02730000
H       -3.82480000       1.02160000      -0.92660000
