22
Properties=species:S:1:pos:R:3 gdb_118284=T pbc="F F F"
C        0.23810000       1.39090000       0.31990000
C       -0.00040000      -0.09650000       0.02860000
C        0.60900000      -0.55100000      -1.30780000
C        0.02540000       0.13350000      -2.53850000
O        0.58150000      -0.50130000      -3.68090000
C        0.55600000      -0.98410000       1.15930000
N       -0.08100000      -0.76320000       2.44790000
C        0.56500000      -0.24750000       3.52850000
O        1.72650000       0.09990000       3.55500000
H        1.30950000       1.62110000       0.31640000
H       -0.24800000       2.03140000      -0.42140000
H       -0.15590000       1.66560000       1.30210000
H       -1.08730000      -0.26860000      -0.02090000
H        1.69450000      -0.38870000      -1.29730000
H        0.45850000      -1.63050000      -1.43370000
H       -1.07410000       0.04110000      -2.52760000
H        0.26210000       1.20780000      -2.53130000
H        0.27370000      -0.03560000      -4.46380000
H        0.44950000      -2.04030000       0.88170000
H        1.62050000      -0.78500000       1.30980000
H       -1.04960000      -1.01860000       2.55860000
H       -0.10590000      -0.17780000       4.40860000
