22
Properties=species:S:1:pos:R:3 gdb_95582=T pbc="F F F"
C       -0.14880000       1.50270000      -0.04790000
C        0.07170000      -0.01740000      -0.00140000
C        0.71620000      -0.46710000      -1.31270000
O        0.72040000      -1.87680000      -1.56940000
C        1.44840000      -2.72450000      -0.78770000
N        1.56980000      -2.81400000       0.46280000
C        0.81820000      -2.00270000       1.41040000
C        0.84950000      -0.47060000       1.25380000
C        2.28260000       0.07360000       1.36280000
H        0.78640000       2.04830000      -0.21240000
H       -0.83410000       1.77530000      -0.85710000
H       -0.58110000       1.86230000       0.89100000
H       -0.91650000      -0.49650000       0.04590000
H        0.15990000      -0.04970000      -2.15650000
H        1.74670000      -0.09450000      -1.38140000
H        1.94480000      -3.46300000      -1.42000000
H       -0.23060000      -2.33420000       1.38250000
H        1.19420000      -2.25370000       2.40850000
H        0.28850000      -0.08340000       2.11640000
H        2.93740000      -0.33220000       0.58670000
H        2.31200000       1.16490000       1.29650000
H        2.71610000      -0.20960000       2.32730000
