16
Properties=species:S:1:pos:R:3 gdb_31677=T pbc="F F F"
C       -0.01270000       1.40220000       0.00920000
O        0.00500000      -0.01170000       0.00280000
C       -1.18210000      -0.65530000       0.01150000
C       -1.40390000      -2.00610000       0.01020000
C       -2.82670000      -2.18990000       0.02120000
C       -3.54820000      -3.45680000       0.02390000
O       -4.75630000      -3.57170000       0.03450000
C       -3.41300000      -0.93910000       0.02930000
N       -2.40580000      -0.01110000       0.02310000
H        1.02970000       1.72310000       0.00160000
H       -0.51320000       1.80700000      -0.88180000
H       -0.49790000       1.79910000       0.91210000
H       -0.64340000      -2.77000000       0.00220000
H       -2.89160000      -4.35660000       0.01720000
H       -4.45150000      -0.65520000       0.03880000
H       -2.54250000       0.98420000       0.02660000
