14
Properties=species:S:1:pos:R:3 gdb_3532=T pbc="F F F"
C        0.02790000       1.53770000      -0.16390000
N        0.03120000       0.08230000      -0.04480000
C       -1.11680000      -0.50100000       0.70910000
C       -0.25350000      -1.69990000       1.19440000
O       -0.62620000      -1.57260000       2.59450000
C       -0.54010000      -0.19290000       2.14390000
C        0.68240000      -0.45810000       1.18420000
H        1.01900000       1.87510000      -0.48400000
H       -0.69000000       1.83430000      -0.93530000
H       -0.23080000       2.06920000       0.76800000
H       -2.14900000      -0.48910000       0.35670000
H       -0.11530000      -2.68820000       0.76040000
H       -0.75010000       0.59340000       2.86830000
H        1.75240000      -0.39610000       1.38680000
