19
Properties=species:S:1:pos:R:3 gdb_79772=T pbc="F F F"
C       -0.14530000       1.62170000      -0.00630000
C        0.09830000       0.11690000       0.03090000
C        1.14140000      -0.60800000      -0.86380000
C        2.62220000      -0.15650000      -0.52870000
O        2.65300000       0.85360000       0.50520000
C        2.25780000      -0.16660000       1.45020000
C        0.75560000      -0.61870000       1.23120000
C        1.27470000      -1.72230000       0.23810000
C        2.74560000      -1.30620000       0.51120000
H        0.76920000       2.18700000       0.16440000
H       -0.56050000       1.91470000      -0.97790000
H       -0.87890000       1.90600000       0.75760000
H       -0.85490000      -0.39900000      -0.14730000
H        0.92440000      -0.80740000      -1.91430000
H        3.30330000       0.06040000      -1.35260000
H        2.60020000       0.04090000       2.46480000
H        0.17890000      -0.82810000       2.13340000
H        0.87400000      -2.72990000       0.15920000
H        3.61910000      -1.93590000       0.66880000
