21
Properties=species:S:1:pos:R:3 gdb_85982=T pbc="F F F"
C        0.22640000       1.49310000      -0.07360000
N        0.02010000       0.07460000       0.11230000
C       -1.30810000      -0.40300000       0.54870000
C       -0.58490000      -1.53430000       1.33460000
O       -0.41400000      -2.71150000       0.56700000
C        0.65630000      -0.59540000       1.26530000
C       -1.12110000      -1.92610000       2.68540000
C       -2.07220000      -3.05640000       2.82320000
N       -0.68810000      -3.18060000       3.31740000
H        1.27780000       1.68890000      -0.30920000
H       -0.37830000       1.85010000      -0.91400000
H       -0.04180000       2.08890000       0.81970000
H       -1.82620000       0.30090000       1.22180000
H       -1.98960000      -0.70940000      -0.25210000
H       -0.05010000      -2.44290000      -0.28410000
H        1.62780000      -1.06080000       1.06640000
H        0.73590000       0.04940000       2.15650000
H       -1.20400000      -1.08950000       3.37580000
H       -2.83520000      -3.02710000       3.59590000
H       -2.34190000      -3.59470000       1.92040000
H       -0.15420000      -3.70720000       2.62840000
