20
Properties=species:S:1:pos:R:3 gdb_104365=T pbc="F F F"
C        0.04850000       1.55830000       0.15130000
C       -0.05330000       0.04170000      -0.03120000
C        0.66220000      -0.49910000      -1.27410000
C        0.13370000       0.08080000      -2.59350000
O        2.07510000      -0.24280000      -1.13420000
C        2.75030000      -1.34660000      -1.65610000
O        1.89280000      -2.47910000      -1.49370000
C        0.62080000      -2.02210000      -1.31740000
N       -0.41610000      -2.73010000      -1.21020000
H        1.09350000       1.88130000       0.15640000
H       -0.47320000       2.10510000      -0.63980000
H       -0.40130000       1.85440000       1.10360000
H        0.37960000      -0.46190000       0.83970000
H       -1.09800000      -0.27980000      -0.09020000
H        0.27220000       1.16370000      -2.61830000
H        0.66070000      -0.35000000      -3.45030000
H       -0.92890000      -0.15090000      -2.70170000
H        2.97590000      -1.23370000      -2.72870000
H        3.67260000      -1.51340000      -1.09210000
H       -0.19510000      -3.72370000      -1.28730000
