14
Properties=species:S:1:pos:R:3 gdb_132445=T pbc="F F F"
N        0.00490000       1.39650000       0.14640000
C       -0.06650000       0.01800000       0.04980000
C       -1.21290000      -0.72990000       0.02430000
C       -1.18460000      -2.15690000      -0.01480000
C        0.02340000      -2.75780000      -0.02660000
F        0.21360000      -4.07170000      -0.05770000
N        1.17760000      -2.03150000      -0.00960000
C        1.24130000      -0.63910000       0.01620000
O        2.31410000      -0.04810000       0.00130000
H        0.92420000       1.74640000      -0.09200000
H       -0.75590000       1.91850000      -0.25970000
H       -2.17730000      -0.23200000       0.04000000
H       -2.08790000      -2.74890000      -0.03000000
H        2.06510000      -2.51510000      -0.03830000
