23
Properties=species:S:1:pos:R:3 gdb_58304=T pbc="F F F"
C       -0.53540000       1.39920000       0.00900000
C        0.05990000      -0.00720000      -0.08430000
O        0.96790000      -0.11720000      -1.17280000
C        0.75370000      -0.43930000       1.22100000
C        1.12800000      -1.92030000       1.21350000
O        1.90060000       0.41380000       1.31900000
C        2.51840000       0.46730000       2.56730000
C        3.73070000      -0.38350000       2.85370000
C        3.86800000       1.10670000       2.61080000
H        0.23740000       2.12240000       0.28540000
H       -0.95740000       1.68830000      -0.95680000
H       -1.32970000       1.44260000       0.76250000
H       -0.74050000      -0.72630000      -0.29570000
H        1.76230000       0.35690000      -0.89690000
H        0.08180000      -0.23010000       2.06880000
H        0.22220000      -2.53370000       1.16510000
H        1.74190000      -2.14390000       0.33730000
H        1.67620000      -2.19820000       2.11640000
H        1.83000000       0.66460000       3.38970000
H        3.87400000      -0.76840000       3.85780000
H        4.06590000      -1.04130000       2.06040000
H        4.28570000       1.41410000       1.65860000
H        4.10700000       1.75880000       3.44310000
