18
Properties=species:S:1:pos:R:3 gdb_93535=T pbc="F F F"
O        0.09850000       1.39760000      -0.04310000
C        0.03140000      -0.01250000      -0.01970000
C        0.77980000      -0.55190000       1.20510000
O        0.68430000      -1.97640000       1.35950000
C       -0.53770000      -2.57160000       1.21910000
N       -0.86720000      -3.59510000       1.88560000
C       -1.42800000      -2.03630000       0.11980000
C       -1.41360000      -0.51180000       0.01190000
O       -1.99570000       0.12230000       1.15160000
H       -0.56780000       1.70380000       0.58620000
H        0.51110000      -0.37280000      -0.93620000
H        1.84550000      -0.33060000       1.12750000
H        0.38470000      -0.06540000       2.10460000
H       -0.12260000      -3.83130000       2.54570000
H       -1.06860000      -2.45120000      -0.83170000
H       -2.43810000      -2.42310000       0.27430000
H       -1.92950000      -0.19060000      -0.90390000
H       -2.92250000      -0.12770000       1.21050000
