17
Properties=species:S:1:pos:R:3 gdb_2699=T pbc="F F F"
C       -0.02450000       1.39340000       0.02510000
O       -0.00090000      -0.01290000       0.00950000
C        0.64490000      -0.54040000      -1.12630000
C        0.61140000      -2.06010000      -1.03790000
C        1.29950000      -2.72360000      -2.24630000
C        1.27890000      -4.17980000      -2.18170000
C        1.25040000      -5.37910000      -2.10830000
H        0.99120000       1.82050000       0.03070000
H       -0.56210000       1.80410000      -0.84480000
H       -0.54170000       1.70240000       0.93670000
H        0.14340000      -0.19700000      -2.04930000
H        1.68830000      -0.18030000      -1.17870000
H        1.10270000      -2.37700000      -0.11260000
H       -0.42920000      -2.39350000      -0.97570000
H        0.81230000      -2.39510000      -3.17430000
H        2.34000000      -2.37860000      -2.31350000
H        1.23000000      -6.43890000      -2.05310000
