21
Properties=species:S:1:pos:R:3 gdb_117203=T pbc="F F F"
C       -0.33950000       1.42240000      -0.27680000
C        0.02070000      -0.03060000      -0.03430000
O        0.58750000      -0.54880000      -1.25340000
C        0.96860000      -1.84180000      -1.21930000
O        0.85170000      -2.54120000      -0.23890000
C        1.54320000      -2.28970000      -2.52520000
C        1.61990000      -1.28770000      -3.65880000
C        2.63670000      -3.34170000      -2.39020000
C        1.27590000      -3.75450000      -2.84730000
H        0.54620000       2.00560000      -0.54450000
H       -1.06890000       1.51470000      -1.08660000
H       -0.77480000       1.85340000       0.62970000
H        0.75200000      -0.14410000       0.77220000
H       -0.85370000      -0.63210000       0.23320000
H        2.23650000      -0.42530000      -3.38900000
H        2.05940000      -1.75430000      -4.54550000
H        0.62830000      -0.91320000      -3.92920000
H        3.44150000      -3.29770000      -3.11580000
H        2.92860000      -3.61220000      -1.38280000
H        0.65770000      -4.30110000      -2.14550000
H        1.12710000      -3.99970000      -3.89310000
