19
Properties=species:S:1:pos:R:3 gdb_102862=T pbc="F F F"
C        0.21210000       1.57490000       0.00280000
C        0.08650000       0.04980000      -0.02140000
C       -1.35900000      -0.45120000      -0.00230000
C       -1.44560000      -1.98260000      -0.08200000
C       -2.86840000      -2.49930000      -0.15710000
O       -3.29250000      -3.17110000      -1.06220000
O       -1.99050000      -0.04180000       1.22880000
C       -2.95220000       0.90320000       1.18950000
O       -3.49130000       1.31340000       2.17180000
H        1.26280000       1.87420000      -0.04200000
H       -0.29870000       2.03180000      -0.85220000
H       -0.21270000       1.99650000       0.91820000
H        0.56510000      -0.35060000      -0.92280000
H        0.61260000      -0.38660000       0.83590000
H       -1.91110000      -0.00670000      -0.84330000
H       -0.90290000      -2.34360000      -0.95950000
H       -0.97400000      -2.39570000       0.81960000
H       -3.51680000      -2.21320000       0.69890000
H       -3.18190000       1.24070000       0.16030000
