13
Properties=species:S:1:pos:R:3 gdb_129494=T pbc="F F F"
N        0.88730000      -0.03040000       0.54120000
C       -0.13180000       0.27620000      -0.27780000
O       -0.22450000       1.21640000      -1.03390000
N       -1.21390000      -0.66720000      -0.19710000
C       -2.36560000      -0.55980000      -0.93910000
N       -3.20580000      -1.50520000      -0.71940000
O       -2.56920000      -2.33250000       0.26030000
C       -1.35120000      -1.81860000       0.57830000
N       -0.50130000      -2.27280000       1.40320000
H        1.68440000       0.58180000       0.53580000
H        0.83900000      -0.86180000       1.12710000
H       -2.52280000       0.25130000      -1.63180000
H       -0.82540000      -3.12550000       1.84940000
