13
Properties=species:S:1:pos:R:3 gdb_25416=T pbc="F F F"
O       -0.11830000      -0.02400000      -0.00060000
C       -0.02240000       1.17720000       0.00840000
C        1.24210000       1.93650000       0.00070000
C        1.20460000       3.30380000       0.01280000
N        2.35870000       4.00900000       0.00580000
C        3.63240000       3.40900000      -0.01370000
O        4.64630000       4.07410000      -0.01900000
C        3.54150000       1.93950000      -0.02500000
N        2.44320000       1.25970000      -0.01860000
H       -0.92500000       1.83290000       0.02410000
H        0.27800000       3.86750000       0.02790000
H        2.35550000       5.02110000       0.01450000
H        4.49160000       1.40960000      -0.04020000
