19
Properties=species:S:1:pos:R:3 gdb_106255=T pbc="F F F"
C        0.13920000       1.33370000       0.16230000
O       -0.15140000      -0.02630000      -0.12500000
C        0.54440000      -0.51730000      -1.20330000
C        0.10660000      -0.30530000      -2.66570000
C        0.39020000      -1.81770000      -2.87820000
O        0.18950000      -2.55890000      -3.79830000
C        0.82380000      -2.01770000      -1.45700000
C        1.94400000      -1.02000000      -1.09960000
C        3.11340000      -0.68300000      -2.00140000
H        1.20430000       1.47630000       0.39050000
H       -0.13270000       1.99060000      -0.67560000
H       -0.45610000       1.60650000       1.03580000
H       -0.97090000      -0.12800000      -2.73920000
H        0.64040000       0.42000000      -3.28530000
H        0.64100000      -2.88730000      -0.83780000
H        2.22180000      -1.16490000      -0.05640000
H        2.81220000      -0.55010000      -3.04350000
H        3.60300000       0.24070000      -1.67400000
H        3.85990000      -1.48340000      -1.97590000
