20
Properties=species:S:1:pos:R:3 gdb_84745=T pbc="F F F"
C       -0.22160000       1.51960000       0.03600000
C        0.04620000      -0.00040000      -0.00850000
C        0.73530000      -0.36910000      -1.28820000
C        1.96860000      -0.85420000      -1.34600000
C        2.78360000      -1.09710000      -0.11650000
C        2.04360000      -0.95910000       1.20790000
O        2.59130000      -1.29670000       2.24530000
N        0.76600000      -0.46120000       1.18100000
C        0.04590000      -0.37910000       2.44480000
H        0.72260000       2.07180000       0.04030000
H       -0.79640000       1.82530000      -0.84370000
H       -0.79530000       1.79850000       0.92380000
H       -0.93600000      -0.50100000       0.00380000
H        0.16080000      -0.18580000      -2.19160000
H        2.42420000      -1.08810000      -2.30470000
H        3.22230000      -2.10210000      -0.11710000
H        3.64580000      -0.41700000      -0.07590000
H        0.56370000      -1.00370000       3.17080000
H        0.00860000       0.64560000       2.83330000
H       -0.98180000      -0.73480000       2.30940000
