19
Properties=species:S:1:pos:R:3 gdb_44954=T pbc="F F F"
O       -0.01950000       0.00240000       0.06920000
C       -0.04530000       1.20180000      -0.00030000
C       -1.27740000       2.11150000      -0.09000000
C       -0.65330000       3.51120000       0.05930000
C       -0.44430000       3.95370000       1.51500000
C        0.39700000       2.92080000       2.29330000
C        1.60050000       2.42790000       1.46300000
C        1.16120000       2.15520000       0.01250000
O        0.63980000       3.35360000      -0.55860000
H       -1.73370000       1.99260000      -1.07830000
H       -2.02190000       1.83950000       0.66200000
H       -1.18580000       4.27590000      -0.50990000
H        0.07470000       4.91850000       1.49170000
H       -1.40970000       4.11600000       2.00800000
H        0.73680000       3.34690000       3.24230000
H       -0.23180000       2.06140000       2.55750000
H        2.38280000       3.19430000       1.42750000
H        2.03420000       1.52450000       1.90390000
H        1.98120000       1.79120000      -0.60980000
