20
Properties=species:S:1:pos:R:3 gdb_117510=T pbc="F F F"
C       -0.05860000       1.66240000       0.11250000
C        0.00990000       0.13390000       0.15770000
C       -1.35020000      -0.51750000      -0.11800000
C       -1.31550000      -2.06590000      -0.08160000
C       -2.62630000      -2.64100000       0.21080000
C       -3.70890000      -3.11340000       0.44040000
C       -0.69740000      -2.65710000      -1.37950000
N       -0.95960000      -3.97610000      -1.58620000
O        0.01480000      -1.99990000      -2.11130000
H        0.91800000       2.10880000       0.32380000
H       -0.37690000       2.01310000      -0.87530000
H       -0.77030000       2.05420000       0.84830000
H        0.73200000      -0.23100000      -0.57680000
H        0.36660000      -0.18740000       1.14640000
H       -2.07640000      -0.17770000       0.62840000
H       -1.72520000      -0.20010000      -1.09660000
H       -0.63110000      -2.37240000       0.72450000
H       -4.66830000      -3.51610000       0.65340000
H       -1.71090000      -4.42760000      -1.09110000
H       -0.63350000      -4.38230000      -2.44830000
