25
Properties=species:S:1:pos:R:3 gdb_121109=T pbc="F F F"
C       -0.06220000       1.60200000       0.06200000
C       -0.02800000       0.07200000       0.09220000
C        0.72730000      -0.48570000       1.30350000
C        0.75290000      -2.00630000       1.36010000
C        1.51570000      -2.61360000       2.56210000
C        0.66340000      -3.84420000       2.95860000
C       -0.48340000      -3.84640000       1.92150000
C       -1.83630000      -4.29840000       2.44140000
O       -0.57850000      -2.49640000       1.48330000
H        0.94930000       2.02290000       0.02670000
H       -0.60660000       1.97200000      -0.81260000
H       -0.55470000       2.00470000       0.95430000
H       -1.04800000      -0.32640000       0.10130000
H        0.43980000      -0.30340000      -0.82790000
H        1.76400000      -0.12280000       1.29650000
H        0.26970000      -0.11560000       2.23080000
H        1.18970000      -2.39720000       0.42270000
H        2.54230000      -2.87580000       2.29360000
H        1.56680000      -1.89140000       3.38230000
H        1.22830000      -4.77990000       2.93900000
H        0.25570000      -3.72870000       3.96750000
H       -0.18990000      -4.47980000       1.06520000
H       -2.14760000      -3.67240000       3.28370000
H       -2.59670000      -4.22590000       1.65870000
H       -1.78850000      -5.33840000       2.77930000
