17
Properties=species:S:1:pos:R:3 gdb_28291=T pbc="F F F"
C       -0.02070000       1.48550000       0.04220000
C        0.00060000      -0.00580000      -0.01380000
C       -0.03180000      -0.78170000      -1.10680000
N        0.00510000      -2.14010000      -0.73650000
C        0.00320000      -3.39260000      -1.27360000
N        0.05640000      -4.30820000      -0.32750000
C        0.09470000      -3.62030000       0.87020000
C        0.06360000      -2.27090000       0.63930000
C        0.06580000      -0.88950000       1.23180000
H        0.87540000       1.88010000       0.53760000
H       -0.07120000       1.92200000      -0.95900000
H       -0.88230000       1.85210000       0.61420000
H       -0.07900000      -0.50090000      -2.14860000
H       -0.03740000      -3.57650000      -2.33620000
H        0.14170000      -4.14500000       1.81200000
H        0.96590000      -0.67780000       1.82410000
H       -0.78930000      -0.70590000       1.89580000
