17
Properties=species:S:1:pos:R:3 gdb_98822=T pbc="F F F"
O        0.02500000       1.38630000       0.00990000
C       -0.03730000      -0.01660000       0.00310000
C       -1.48620000      -0.45970000       0.01220000
N       -2.44980000       0.36720000       0.02440000
N       -1.64160000      -1.85120000       0.00570000
C       -2.86860000      -2.66490000       0.01120000
C       -1.96220000      -3.92730000      -0.00230000
C       -0.77570000      -2.94680000      -0.00620000
O        0.42200000      -3.02220000      -0.01570000
H        0.95510000       1.63030000       0.00570000
H        0.44820000      -0.45990000      -0.88070000
H        0.46190000      -0.46900000       0.87470000
H       -3.35310000      -0.11090000       0.02890000
H       -3.47480000      -2.53050000       0.91160000
H       -3.48890000      -2.52140000      -0.87800000
H       -2.01680000      -4.55790000       0.88640000
H       -2.03050000      -4.54860000      -0.89650000
