23
Properties=species:S:1:pos:R:3 gdb_85851=T pbc="F F F"
C       -0.78430000       1.44240000       0.11070000
C       -0.09040000       0.08600000       0.00610000
C       -1.08470000      -0.96690000      -0.50060000
C        1.24820000       0.04800000      -0.79940000
C        1.83850000      -0.89010000       0.28060000
O        3.19380000      -0.79560000       0.65100000
C        0.71530000      -0.42400000       1.26050000
C        1.19000000       0.65950000       2.22690000
O        0.02600000      -1.43970000       1.96800000
H       -0.10460000       2.23540000       0.43490000
H       -1.19070000       1.73630000      -0.86370000
H       -1.62130000       1.40560000       0.81730000
H       -1.48840000      -0.65790000      -1.47140000
H       -0.62450000      -1.95030000      -0.62250000
H       -1.91840000      -1.08330000       0.19740000
H        1.20820000      -0.32470000      -1.82570000
H        1.75150000       1.02200000      -0.80220000
H        1.67580000      -1.94100000       0.02820000
H        3.41290000       0.13570000       0.75720000
H        1.68480000       1.49440000       1.71960000
H        0.34700000       1.06220000       2.79450000
H        1.91340000       0.23370000       2.93230000
H        0.60390000      -1.75870000       2.66970000
