14
Properties=species:S:1:pos:R:3 gdb_7875=T pbc="F F F"
C       -0.03150000       1.50530000       0.05440000
C       -0.00670000       0.02000000      -0.04810000
C       -0.03650000      -0.76940000      -1.13810000
C        0.00650000      -2.21030000      -0.77700000
O       -0.00820000      -3.13790000      -1.55050000
C        0.07210000      -2.29230000       0.74850000
C        0.06100000      -0.83240000       1.18710000
O        0.09870000      -0.40430000       2.31560000
H        0.85900000       1.86210000       0.58350000
H       -0.08140000       1.98350000      -0.92570000
H       -0.88830000       1.82790000       0.65600000
H       -0.08570000      -0.44710000      -2.17200000
H       -0.78050000      -2.84230000       1.15860000
H        0.97830000      -2.80600000       1.08430000
