17
Properties=species:S:1:pos:R:3 gdb_57724=T pbc="F F F"
C       -0.10650000       1.56700000       0.01790000
C       -0.21780000       0.03520000      -0.03570000
O        0.05430000      -0.54190000       1.24220000
C       -1.65680000      -0.41660000      -0.36170000
O       -2.59130000       0.14100000       0.55550000
C       -2.87490000      -0.57370000       1.67050000
O       -3.57710000      -0.14670000       2.53490000
C        0.68080000      -0.51880000      -1.05980000
C        1.41620000      -0.97350000      -1.89480000
H        0.91150000       1.85930000       0.29290000
H       -0.32950000       2.00800000      -0.95750000
H       -0.80750000       1.95780000       0.75750000
H        0.92270000      -0.24140000       1.53070000
H       -1.94300000      -0.06780000      -1.35520000
H       -1.69520000      -1.51110000      -0.34240000
H       -2.40750000      -1.57380000       1.66900000
H        2.06990000      -1.37650000      -2.62910000
