20
Properties=species:S:1:pos:R:3 gdb_109253=T pbc="F F F"
C        0.19920000       0.95280000      -0.61090000
C       -0.37370000       0.18780000       0.59250000
C        0.69380000      -0.28320000       1.54420000
N        0.78130000       0.16620000       2.72480000
C        1.85500000      -0.25600000       3.61240000
C        2.74570000      -1.37360000       3.09790000
C        2.15200000      -2.73880000       2.80900000
C        2.51850000      -1.81090000       1.68460000
O        1.49120000      -1.21170000       0.93280000
H        0.89160000       0.32620000      -1.17890000
H       -0.60470000       1.26980000      -1.28150000
H        0.73850000       1.84700000      -0.28300000
H       -1.05910000       0.81760000       1.16240000
H       -0.93030000      -0.68700000       0.23520000
H        2.47640000       0.62710000       3.81140000
H        1.40730000      -0.52670000       4.57810000
H        3.77430000      -1.34780000       3.44400000
H        2.76140000      -3.62150000       2.96810000
H        1.09310000      -2.87330000       3.00680000
H        3.35290000      -2.05200000       1.03670000
