16
Properties=species:S:1:pos:R:3 gdb_46090=T pbc="F F F"
O       -0.01650000      -0.04060000      -0.25460000
C       -0.01440000       1.16000000      -0.04990000
N       -1.16740000       1.87360000       0.19010000
C       -1.21600000       3.32300000       0.07220000
C       -0.02590000       3.94570000       0.83090000
C        1.25340000       3.22880000       0.43580000
C        1.23600000       1.96240000       0.01860000
C        0.04690000       5.38490000       0.59790000
C        0.09890000       6.56730000       0.39160000
H       -2.01440000       1.35230000       0.01520000
H       -1.17220000       3.65230000      -0.97640000
H       -2.15640000       3.68370000       0.49520000
H       -0.18270000       3.77540000       1.90800000
H        2.18320000       3.78030000       0.53500000
H        2.13990000       1.42310000      -0.23950000
H        0.14810000       7.61400000       0.21780000
