18
Properties=species:S:1:pos:R:3 gdb_80660=T pbc="F F F"
C       -0.39200000       1.44470000       0.04280000
C        0.06780000      -0.01140000      -0.03730000
N        0.71820000      -0.32100000      -1.32660000
C        1.23490000      -1.73820000      -1.22550000
C        2.45210000      -1.18550000      -0.47020000
C        2.16490000       0.11720000      -1.23020000
O        2.11780000      -1.00670000       0.92030000
C        0.93560000      -0.38440000       1.18890000
O        0.61430000      -0.17030000       2.32420000
H        0.44810000       2.13900000      -0.05690000
H       -1.10170000       1.64940000      -0.76190000
H       -0.86790000       1.62740000       1.00800000
H       -0.82150000      -0.65070000       0.03330000
H        0.58670000      -2.44370000      -0.69880000
H        1.47820000      -2.12190000      -2.21970000
H        3.42720000      -1.67520000      -0.49070000
H        2.61110000       0.14870000      -2.22710000
H        2.35110000       1.05870000      -0.70850000
