15
Properties=species:S:1:pos:R:3 gdb_127194=T pbc="F F F"
C        0.02600000       1.43700000       0.01470000
N       -0.00110000      -0.01260000       0.02170000
C       -0.01060000      -0.77090000      -1.14970000
N        0.00300000      -0.29220000      -2.33220000
N       -0.03660000      -2.06490000      -0.63750000
N       -0.04300000      -2.12980000       0.71780000
C       -0.02130000      -0.88140000       1.09970000
C       -0.01880000      -0.45370000       2.50960000
O       -0.03670000      -1.20930000       3.44970000
H        0.92380000       1.82010000       0.50920000
H        0.03560000       1.74220000      -1.03280000
H       -0.86040000       1.85350000       0.50260000
H       -0.00780000      -1.01840000      -3.04170000
H       -0.05000000      -2.91610000      -1.17200000
H        0.00140000       0.64790000       2.64840000
