14
Properties=species:S:1:pos:R:3 gdb_10128=T pbc="F F F"
O        0.09840000       1.41710000       0.12550000
C        0.06630000       0.01560000      -0.01810000
C       -1.37100000      -0.50550000       0.00770000
O       -1.88460000      -0.19710000       1.29820000
C       -3.09530000      -0.70500000       1.64610000
O       -3.61900000      -0.42740000       2.67890000
C       -2.20760000       0.14930000      -1.09040000
O       -3.29430000       0.62380000      -0.90550000
H       -0.34280000       1.62900000       0.95690000
H        0.52140000      -0.21820000      -0.98610000
H        0.64320000      -0.50090000       0.76190000
H       -1.37200000      -1.59360000      -0.17070000
H       -3.49880000      -1.40920000       0.89840000
H       -1.73200000       0.12850000      -2.09470000
