18
Properties=species:S:1:pos:R:3 gdb_7610=T pbc="F F F"
C       -0.20500000       1.50560000       0.12910000
C       -0.01740000       0.00870000       0.08040000
N        1.26250000      -0.51350000      -0.39290000
C        0.88550000      -0.75550000       1.01180000
C        1.72880000      -0.07130000       2.06800000
C        0.40090000      -2.16650000       1.27310000
N        0.44880000      -2.59860000       2.56330000
O       -0.00460000      -2.87730000       0.36640000
H        0.71940000       2.02300000       0.39280000
H       -0.51950000       1.87250000      -0.85400000
H       -0.98090000       1.78120000       0.85160000
H       -0.89810000      -0.55160000      -0.22840000
H        1.09100000      -1.38270000      -0.89960000
H        2.13820000       0.86140000       1.67930000
H        1.14660000       0.16900000       2.96620000
H        2.57550000      -0.70090000       2.36260000
H        0.73060000      -2.00830000       3.32450000
H        0.09110000      -3.51760000       2.76490000
