23
Properties=species:S:1:pos:R:3 gdb_86667=T pbc="F F F"
C       -0.01140000       1.60150000      -0.06500000
C        0.06000000       0.08320000       0.00630000
C        1.03020000      -0.67790000      -0.93070000
C        1.28320000      -1.70990000       0.20130000
C        2.67740000      -2.23430000       0.38970000
O        2.95270000      -3.36920000       0.69180000
C        0.72220000      -0.64380000       1.23310000
C        1.82120000       0.18030000       1.91230000
C       -0.23670000      -1.20780000       2.27640000
H        0.97700000       2.06300000       0.02640000
H       -0.43510000       1.92030000      -1.02390000
H       -0.64770000       2.01280000       0.72670000
H       -0.94910000      -0.32680000      -0.12020000
H        0.63890000      -1.06290000      -1.87490000
H        1.93160000      -0.09200000      -1.14420000
H        0.60340000      -2.56380000       0.14340000
H        3.48400000      -1.48070000       0.22770000
H        2.53960000       0.59940000       1.20160000
H        1.38220000       1.01630000       2.46700000
H        2.38070000      -0.43180000       2.62800000
H        0.28780000      -1.85630000       2.98720000
H       -0.70810000      -0.40030000       2.84960000
H       -1.03260000      -1.79690000       1.80930000
