18
Properties=species:S:1:pos:R:3 gdb_112678=T pbc="F F F"
C        0.00300000       1.40540000       0.04630000
N       -0.01430000      -0.03750000       0.06480000
C       -1.21730000      -0.82030000      -0.09310000
C       -0.65460000      -2.25790000      -0.08390000
C       -1.13890000      -3.13920000      -1.22660000
O       -0.53360000      -4.41050000      -1.20000000
O        0.77170000      -2.10160000      -0.21700000
C        1.12410000      -0.78160000      -0.10970000
O        2.26060000      -0.39620000      -0.16010000
H        1.04510000       1.72430000       0.09850000
H       -0.44710000       1.80210000      -0.87410000
H       -0.54440000       1.81440000       0.90300000
H       -1.92810000      -0.65040000       0.72320000
H       -1.73150000      -0.58710000      -1.03950000
H       -0.84090000      -2.76070000       0.87120000
H       -2.21980000      -3.29570000      -1.13440000
H       -0.95490000      -2.61340000      -2.17830000
H        0.41980000      -4.26540000      -1.21690000
