16
Properties=species:S:1:pos:R:3 gdb_45636=T pbc="F F F"
O        0.13210000       0.07330000       0.38310000
C       -0.00350000       1.25470000       0.17200000
C       -1.26350000       2.01680000      -0.27810000
C       -0.82030000       3.45580000      -0.29130000
C        0.47250000       3.51150000       0.04960000
C        1.39280000       4.69750000       0.13250000
C        2.19600000       4.71960000       1.35390000
C        2.86440000       4.70220000       2.35220000
N        0.97970000       2.22430000       0.29540000
H       -1.58070000       1.64380000      -1.25940000
H       -2.08510000       1.80590000       0.41590000
H       -1.43910000       4.30160000      -0.55050000
H        2.06920000       4.69500000      -0.73480000
H        0.79300000       5.61020000       0.05340000
H        3.44940000       4.70500000       3.23870000
H        1.88000000       2.03750000       0.70750000
