15
Properties=species:S:1:pos:R:3 gdb_27748=T pbc="F F F"
N        0.05400000       1.35060000       0.16100000
C       -0.03160000      -0.02600000       0.02820000
C       -1.16420000      -0.83950000      -0.04780000
C       -0.69830000      -2.17140000      -0.07950000
O       -1.43000000      -3.30710000      -0.15930000
C        0.69470000      -2.16110000      -0.02850000
N        1.06380000      -0.81340000       0.03510000
C        1.69300000      -3.17950000      -0.02960000
O        2.89600000      -2.94560000       0.02440000
H        0.86390000       1.76750000      -0.27850000
H       -0.78970000       1.83210000      -0.11470000
H       -2.18850000      -0.50010000      -0.08200000
H       -2.36410000      -3.07750000      -0.17220000
H        2.02900000      -0.54390000       0.13490000
H        1.30360000      -4.21580000      -0.08110000
