22
Properties=species:S:1:pos:R:3 gdb_100318=T pbc="F F F"
C        1.48710000      -1.64280000      -0.99870000
C        0.45500000      -0.85220000      -0.18640000
C        0.72000000      -0.72130000       1.33050000
O       -0.25540000       0.16090000       1.88710000
C        0.59530000      -2.06980000       2.05980000
O       -0.76900000      -2.47500000       1.94920000
C        2.09020000      -0.12470000       1.62520000
C        2.30090000       1.34080000       1.59360000
N        2.31310000       0.61080000       2.87810000
H        1.58180000      -2.67710000      -0.65180000
H        1.18730000      -1.68250000      -2.05040000
H        2.47920000      -1.18290000      -0.95990000
H        0.37970000       0.16750000      -0.57790000
H       -0.53260000      -1.31080000      -0.30820000
H       -1.04230000      -0.38210000       2.02670000
H        1.26820000      -2.81770000       1.61890000
H        0.87920000      -1.92820000       3.11090000
H       -0.93810000      -3.16960000       2.59120000
H        2.91960000      -0.77080000       1.34730000
H        3.26030000       1.74460000       1.28280000
H        1.44060000       1.96580000       1.37600000
H        1.39900000       0.74730000       3.30810000
