19
Properties=species:S:1:pos:R:3 gdb_68272=T pbc="F F F"
C       -0.31140000       1.62660000      -0.15780000
C       -0.07750000       0.14350000      -0.03580000
C        0.58370000      -0.83990000      -1.03430000
N        0.18830000      -1.78720000       0.11780000
C        0.73370000      -0.65650000       1.01190000
C       -1.15290000      -0.99230000       0.14110000
C       -2.02750000      -1.11970000       1.38920000
C       -2.00820000      -1.25820000      -1.02220000
N       -2.73220000      -1.44040000      -1.90540000
H        0.63690000       2.15940000      -0.28390000
H       -0.94350000       1.85070000      -1.02330000
H       -0.80440000       2.02450000       0.73550000
H        0.08020000      -1.05230000      -1.97860000
H        1.66500000      -0.76750000      -1.16750000
H        1.82150000      -0.57430000       0.96010000
H        0.40460000      -0.69110000       2.04930000
H       -1.52020000      -0.80780000       2.30150000
H       -2.92600000      -0.50710000       1.27440000
H       -2.34370000      -2.16000000       1.50860000
