21
Properties=species:S:1:pos:R:3 gdb_81704=T pbc="F F F"
C       -0.04130000       1.55270000       0.04700000
C       -0.00510000       0.02650000       0.04300000
C        1.05540000      -0.58010000      -0.92880000
C        2.04120000      -0.65110000       0.27340000
C        0.80870000      -0.60900000       1.21780000
O        0.31160000      -1.86920000       1.63550000
C        0.47440000      -2.95910000       0.74220000
C       -0.03530000      -2.73240000      -0.68390000
O        0.73370000      -1.84580000      -1.48160000
H        0.95780000       1.98830000       0.15600000
H       -0.46680000       1.93550000      -0.88660000
H       -0.65550000       1.92560000       0.87360000
H       -1.02060000      -0.36270000      -0.05950000
H        1.35600000       0.03590000      -1.78050000
H        2.71750000      -1.50550000       0.32280000
H        2.63080000       0.26430000       0.36460000
H        0.89250000      -0.01390000       2.13120000
H        1.52400000      -3.28510000       0.70210000
H       -0.10620000      -3.77640000       1.18350000
H       -0.00100000      -3.69120000      -1.21250000
H       -1.08810000      -2.41680000      -0.64340000
