18
Properties=species:S:1:pos:R:3 gdb_22778=T pbc="F F F"
C       -0.14430000       0.63570000      -0.56800000
O       -0.42600000      -0.17130000       0.56540000
C        0.67800000      -0.32630000       1.42640000
C        0.23820000      -1.01340000       2.74630000
C        0.87630000      -2.29330000       2.24270000
N        0.83510000      -3.52000000       2.55010000
O        0.05550000      -3.72880000       3.69960000
C        1.53570000      -1.60490000       1.05000000
O        1.35950000      -2.13310000      -0.23190000
H        0.65540000       0.20750000      -1.18370000
H       -1.06390000       0.69030000      -1.15560000
H        0.14470000       1.65280000      -0.26440000
H        1.23290000       0.61480000       1.52530000
H        0.70070000      -0.60320000       3.64850000
H       -0.84390000      -1.05600000       2.89260000
H        0.09460000      -4.68620000       3.80110000
H        2.61100000      -1.45510000       1.19130000
H        0.40580000      -2.18480000      -0.37450000
