15
Properties=species:S:1:pos:R:3 gdb_132264=T pbc="F F F"
C        0.02810000       1.49240000       0.00660000
C       -0.02790000      -0.00510000       0.01390000
C       -1.18230000      -0.70400000      -0.11340000
C       -1.20450000      -2.15270000      -0.10310000
N       -2.26870000      -2.85200000      -0.22010000
N        0.10090000      -2.68900000       0.05270000
C        1.18960000      -1.89520000       0.17160000
F        2.31070000      -2.58350000       0.30750000
N        1.21520000      -0.62320000       0.16330000
H        0.67510000       1.83980000      -0.80610000
H       -0.96320000       1.93350000      -0.11290000
H        0.47220000       1.85590000       0.93950000
H       -2.13730000      -0.20940000      -0.22820000
H       -2.07850000      -3.85420000      -0.18910000
H        0.22760000      -3.69080000       0.07630000
