25
Properties=species:S:1:pos:R:3 gdb_117689=T pbc="F F F"
C       -0.15630000       1.67230000       0.01260000
C        0.01650000       0.14970000       0.00270000
C       -1.33000000      -0.58560000       0.01160000
C       -1.28680000      -2.13430000       0.00290000
C       -0.59650000      -2.66070000      -1.26730000
C       -0.57250000      -2.67420000       1.25400000
C       -2.77290000      -2.61190000       0.01450000
C       -2.95780000      -4.05810000       0.00840000
C       -3.10560000      -5.25170000       0.00330000
H        0.81140000       2.18350000       0.00610000
H       -0.71900000       2.01320000      -0.86370000
H       -0.70220000       2.00360000       0.90310000
H        0.59620000      -0.14010000      -0.88150000
H        0.61290000      -0.14960000       0.87250000
H       -1.89700000      -0.26080000       0.89600000
H       -1.91380000      -0.25140000      -0.85820000
H        0.46290000      -2.38990000      -1.28940000
H       -0.66310000      -3.75120000      -1.31890000
H       -1.06620000      -2.25310000      -2.17010000
H       -1.02480000      -2.27640000       2.16990000
H       -0.63810000      -3.76530000       1.29510000
H        0.48730000      -2.40360000       1.25870000
H       -3.27030000      -2.19260000       0.89910000
H       -3.28710000      -2.18310000      -0.85580000
H       -3.24490000      -6.30410000      -0.00150000
