19
Properties=species:S:1:pos:R:3 gdb_85289=T pbc="F F F"
C        0.17030000       1.56270000      -0.11300000
C       -0.00480000       0.06700000       0.09560000
O        0.49270000      -0.65050000      -1.04650000
C        1.18300000      -1.77120000      -0.64880000
N        1.58760000      -2.68330000      -1.41610000
N        1.39450000      -1.77780000       0.75940000
C        2.21320000      -0.60230000       1.17090000
C        0.73640000      -0.55940000       1.27570000
C        0.02770000      -0.64100000       2.60290000
H        1.22610000       1.82590000      -0.21690000
H       -0.35810000       1.88600000      -1.01370000
H       -0.24320000       2.11090000       0.73940000
H       -1.07470000      -0.16470000       0.19770000
H        1.31110000      -2.47790000      -2.37610000
H        2.81000000      -0.77330000       2.06100000
H        2.70980000      -0.04230000       0.38360000
H       -0.13260000       0.35950000       3.01960000
H       -0.94810000      -1.12610000       2.49550000
H        0.61730000      -1.21830000       3.31860000
