13
Properties=species:S:1:pos:R:3 gdb_132811=T pbc="F F F"
O        0.09240000       1.36880000       0.11500000
C        0.06360000       0.01440000       0.05390000
C        0.10570000      -0.65740000      -1.16990000
O        0.17700000       0.07280000      -2.31410000
C        0.07200000      -2.04460000      -1.14450000
F        0.11300000      -2.68450000      -2.32880000
C       -0.00090000      -2.72770000       0.05730000
N       -0.04100000      -2.08350000       1.22540000
C       -0.00940000      -0.74980000       1.21790000
H        0.14470000       1.71190000      -0.78600000
H        0.19940000      -0.53300000      -3.06490000
H       -0.02670000      -3.81320000       0.06480000
H       -0.04260000      -0.24020000       2.17670000
