14
Properties=species:S:1:pos:R:3 gdb_7035=T pbc="F F F"
O        0.54110000      -0.15720000       0.41590000
C        0.24180000       0.86320000      -0.14380000
C        1.03760000       2.15420000      -0.00150000
C        1.11120000       2.94300000      -1.30440000
O        0.17740000       2.97870000      -2.07270000
C        2.41040000       3.68490000      -1.59880000
C        2.17690000       5.01570000      -2.30230000
O        2.82960000       5.99960000      -2.07830000
H       -0.64110000       0.94090000      -0.80840000
H        0.49660000       2.79140000       0.71520000
H        2.01840000       1.94030000       0.42900000
H        3.03040000       3.83710000      -0.71260000
H        2.97990000       3.04700000      -2.29240000
H        1.35250000       5.00370000      -3.04200000
