15
Properties=species:S:1:pos:R:3 gdb_62414=T pbc="F F F"
C       -0.14750000       1.62740000       0.00110000
C        0.03420000       0.11210000      -0.01500000
C       -1.24320000      -0.55570000       0.23730000
N       -2.25280000      -1.07050000       0.46290000
N        0.66720000      -0.52690000      -1.24690000
C        2.03540000      -0.02640000      -1.32550000
C        1.76300000      -1.14650000      -0.37910000
C        1.14850000      -0.58570000       0.86430000
O        1.29970000      -0.73180000       2.03590000
H        0.80000000       2.15330000      -0.12610000
H       -0.83310000       1.93290000      -0.79400000
H       -0.57410000       1.92890000       0.96100000
H        2.53070000      -0.29540000      -2.25300000
H        2.29340000       0.95750000      -0.94720000
H        2.14470000      -2.15030000      -0.52020000
