16
Properties=species:S:1:pos:R:3 gdb_46856=T pbc="F F F"
N       -0.16060000       1.30150000      -0.22060000
C       -0.03920000       0.10100000       0.15260000
O        1.08440000      -0.35340000       0.78930000
C        1.32480000      -1.76480000       0.85750000
C        0.13420000      -2.52720000       1.38760000
C       -0.78170000      -1.87010000       2.36140000
C       -1.22300000      -2.03720000       0.90730000
C       -1.20880000      -0.87240000      -0.01250000
O       -2.05010000      -0.69220000      -0.85840000
H        0.69860000       1.81970000      -0.01950000
H        1.60870000      -2.13780000      -0.13600000
H        2.19030000      -1.86810000       1.51790000
H        0.27560000      -3.60180000       1.44920000
H       -1.29940000      -2.49140000       3.08220000
H       -0.54080000      -0.87250000       2.70970000
H       -2.00780000      -2.75330000       0.69630000
