19
Properties=species:S:1:pos:R:3 gdb_39079=T pbc="F F F"
C        0.03430000       1.50240000      -0.36150000
C        1.37990000       2.07080000       0.04680000
C        2.15300000       1.80170000       1.09910000
C        1.96670000       0.78550000       2.20690000
C        0.65200000       0.83320000       2.98770000
O       -0.42020000       1.63120000       2.49780000
C       -0.58660000       0.21050000       2.45350000
C       -0.56010000      -0.47750000       1.14600000
C       -0.24270000       0.05020000      -0.03820000
H       -0.74130000       2.13350000       0.08570000
H       -0.06130000       1.62840000      -1.44570000
H        1.73470000       2.85340000      -0.62220000
H        3.06970000       2.38120000       1.18040000
H        2.08050000      -0.22550000       1.79500000
H        2.78090000       0.91160000       2.92660000
H        0.75800000       0.87500000       4.07260000
H       -1.30800000      -0.17330000       3.17620000
H       -0.76730000      -1.54450000       1.20490000
H       -0.19700000      -0.63110000      -0.88460000
