21
Properties=species:S:1:pos:R:3 gdb_49063=T pbc="F F F"
O       -0.00570000      -0.05250000      -0.12080000
C        0.09120000       1.14800000      -0.05510000
C        1.37610000       1.92650000       0.00280000
C        1.34620000       3.18610000       0.92220000
C        1.87580000       4.05910000      -0.24480000
C        1.60820000       2.88800000      -1.23560000
C        2.77960000       2.29930000      -2.05070000
C        3.01870000       0.89550000      -1.45050000
C        2.62870000       1.03670000       0.03290000
H       -0.82260000       1.79040000      -0.05420000
H        0.32640000       3.45600000       1.21470000
H        1.95520000       3.12530000       1.82720000
H        1.33680000       4.99010000      -0.43470000
H        2.94060000       4.29390000      -0.15950000
H        0.71180000       3.05110000      -1.84010000
H        2.56770000       2.26020000      -3.12290000
H        3.67140000       2.92400000      -1.92480000
H        2.35220000       0.16710000      -1.92510000
H        4.04350000       0.54050000      -1.59280000
H        3.42990000       1.53500000       0.59080000
H        2.42850000       0.07450000       0.50920000
