20
Properties=species:S:1:pos:R:3 gdb_108759=T pbc="F F F"
C       -0.30220000       1.45730000      -0.09860000
C        0.14700000      -0.01060000       0.02190000
C        0.84100000      -0.52880000      -1.20080000
C        2.10880000      -0.93890000      -1.31780000
C        2.39520000      -1.36050000      -2.71800000
O        3.43390000      -1.76350000      -3.19930000
N        1.19700000      -1.19090000      -3.38070000
C        0.14120000      -0.65460000      -2.54840000
C       -1.10670000      -1.54950000      -2.51920000
H        0.55180000       2.11210000      -0.29660000
H       -1.02450000       1.59360000      -0.90950000
H       -0.77800000       1.78880000       0.82890000
H        0.81910000      -0.11780000       0.87950000
H       -0.73180000      -0.63350000       0.23690000
H        2.86240000      -0.97630000      -0.54300000
H        1.11340000      -1.34520000      -4.37120000
H       -0.15640000       0.34650000      -2.89940000
H       -0.85390000      -2.54500000      -2.14350000
H       -1.88330000      -1.11720000      -1.88080000
H       -1.52470000      -1.65580000      -3.52490000
