19
Properties=species:S:1:pos:R:3 gdb_69273=T pbc="F F F"
C        0.05990000       1.51850000      -0.05530000
C       -0.00960000       0.00880000       0.02750000
C       -1.26730000      -0.63980000      -0.58270000
N       -1.89400000      -1.71640000       0.18310000
C       -0.92710000      -2.66400000       0.74100000
C        0.05400000      -1.97120000       1.69040000
O        0.28690000      -2.38760000       2.80460000
C        0.64400000      -0.69300000       1.18940000
N        1.27490000      -0.66430000      -0.15790000
H        1.01240000       1.88070000       0.33850000
H       -0.02140000       1.84940000      -1.09700000
H       -0.75610000       1.98030000       0.51090000
H       -2.02450000       0.13230000      -0.74760000
H       -1.00440000      -1.03140000      -1.57640000
H       -2.42980000      -1.31520000       0.94680000
H       -1.44360000      -3.44450000       1.30440000
H       -0.39680000      -3.15520000      -0.08700000
H        1.17530000      -0.12240000       1.94620000
H        1.15290000      -1.56260000      -0.62210000
