20
Properties=species:S:1:pos:R:3 gdb_14154=T pbc="F F F"
O       -0.11380000       1.43510000      -0.07650000
C       -0.07010000       0.03830000      -0.01240000
C       -0.52060000      -0.67090000       1.23960000
C       -1.37980000      -0.70020000      -0.00890000
C       -2.70150000       0.07340000      -0.06620000
C       -3.41510000      -0.50440000      -1.30110000
C       -3.02760000      -1.99220000      -1.26980000
C       -1.54120000      -1.98010000      -0.84930000
H        0.54720000       1.78190000       0.53130000
H        0.74590000      -0.41310000      -0.58010000
H       -0.00180000      -1.57570000       1.54280000
H       -0.86350000      -0.04470000       2.05840000
H       -3.29630000      -0.12880000       0.83360000
H       -2.53940000       1.15170000      -0.11920000
H       -4.49640000      -0.33930000      -1.28670000
H       -3.02370000      -0.03550000      -2.21230000
H       -3.62640000      -2.51010000      -0.51070000
H       -3.19480000      -2.50670000      -2.22030000
H       -0.89660000      -1.93450000      -1.73550000
H       -1.25920000      -2.88220000      -0.29740000
