21
Properties=species:S:1:pos:R:3 gdb_96426=T pbc="F F F"
C        0.01700000       1.55160000      -0.00830000
C        0.08930000       0.02090000      -0.01420000
C        0.74080000      -0.53610000      -1.28980000
C        0.76030000      -2.06910000      -1.25300000
C        1.43510000      -2.55270000       0.02890000
O        0.82580000      -1.98950000       1.19390000
C        0.79130000      -0.58250000       1.23540000
C        2.15110000       0.04710000       1.52370000
O        3.20800000      -0.52950000       1.50080000
H        0.99990000       2.01050000      -0.15810000
H       -0.63020000       1.89910000      -0.81990000
H       -0.39480000       1.93700000       0.93100000
H       -0.93640000      -0.36910000       0.02930000
H        0.19660000      -0.17380000      -2.16940000
H        1.76770000      -0.15360000      -1.37640000
H       -0.26800000      -2.45010000      -1.28990000
H        1.29060000      -2.47670000      -2.12090000
H        1.32890000      -3.63440000       0.14910000
H        2.50440000      -2.31280000       0.01530000
H        0.17840000      -0.33040000       2.11500000
H        2.09560000       1.12550000       1.79960000
