17
Properties=species:S:1:pos:R:3 gdb_43956=T pbc="F F F"
O       -0.36360000       0.05680000      -0.71270000
C       -0.13820000       1.09980000      -0.20580000
O       -1.08960000       2.03980000       0.26950000
C        0.00790000       2.71230000       0.99570000
C        0.90380000       3.99530000       1.04650000
C        2.03350000       2.84330000       1.08820000
C        1.79000000       2.20780000       2.46050000
C        0.23820000       2.09190000       2.39000000
C        1.02630000       2.10560000       0.09900000
H        0.92720000       4.57430000       0.12430000
H        0.83030000       4.64520000       1.92290000
H        3.05500000       3.06520000       0.78260000
H        2.27990000       1.23730000       2.56590000
H        2.13850000       2.85340000       3.27130000
H       -0.27960000       2.64650000       3.17640000
H       -0.10750000       1.05590000       2.42360000
H        1.05450000       2.67380000      -0.83820000
