25
Properties=species:S:1:pos:R:3 gdb_119905=T pbc="F F F"
C        0.06090000       1.54250000       0.13890000
C       -0.05480000       0.01960000       0.24000000
C       -1.43320000      -0.50940000      -0.18410000
C       -1.52500000      -2.02010000      -0.10890000
C       -2.02110000      -2.71420000       1.14810000
O       -2.53790000      -1.94980000       2.20260000
C       -2.84380000      -2.78700000      -0.11290000
C       -4.16180000      -2.03750000      -0.17530000
C       -2.85760000      -4.11410000      -0.85020000
H        1.05170000       1.89140000       0.44650000
H       -0.10760000       1.88300000      -0.88890000
H       -0.68020000       2.03970000       0.77470000
H        0.72060000      -0.45050000      -0.37910000
H        0.15390000      -0.29840000       1.27090000
H       -2.20000000      -0.05490000       0.45120000
H       -1.64410000      -0.17550000      -1.20930000
H       -0.70720000      -2.52790000      -0.61890000
H       -1.51160000      -3.62470000       1.46660000
H       -1.79850000      -1.53660000       2.66070000
H       -4.17530000      -1.17080000       0.48560000
H       -4.37260000      -1.70170000      -1.19730000
H       -4.98380000      -2.69470000       0.13120000
H       -3.63910000      -4.77520000      -0.45670000
H       -3.05350000      -3.96710000      -1.91920000
H       -1.90030000      -4.63740000      -0.75890000
