19
Properties=species:S:1:pos:R:3 gdb_61967=T pbc="F F F"
O       -0.11110000       1.36030000       0.01220000
C       -0.05220000      -0.06420000      -0.01800000
C        0.63760000      -0.58100000      -1.28450000
C       -0.04680000      -0.07960000      -2.57170000
C        0.64270000      -0.51040000      -3.78060000
C        1.23320000      -0.87830000      -4.76080000
C        0.60550000      -0.61730000       1.25970000
C       -0.13890000      -0.21940000       2.51850000
O       -0.38300000      -0.97240000       3.42650000
H        0.79340000       1.69450000      -0.01580000
H       -1.10510000      -0.37450000      -0.03760000
H        1.68850000      -0.26110000      -1.28180000
H        0.64780000      -1.67620000      -1.27490000
H       -1.08480000      -0.43690000      -2.59300000
H       -0.10580000       1.01410000      -2.54010000
H        1.74270000      -1.19670000      -5.63630000
H        0.68890000      -1.70770000       1.23340000
H        1.62610000      -0.20900000       1.32920000
H       -0.45440000       0.84540000       2.54750000
