15
Properties=species:S:1:pos:R:3 gdb_53853=T pbc="F F F"
C       -0.25950000       1.26530000      -0.14440000
C        0.48800000      -0.03990000      -0.04080000
O        1.08550000      -0.41630000       0.93300000
C        0.43720000      -0.90110000      -1.32800000
O       -0.12420000      -0.54260000      -2.33220000
O        1.09500000      -2.05510000      -1.17040000
C        1.09840000      -2.93780000      -2.31640000
C       -0.08860000      -3.77800000      -2.36220000
C       -1.05700000      -4.48640000      -2.40480000
H       -1.31210000       1.07650000      -0.37910000
H       -0.17040000       1.81220000       0.79420000
H        0.13520000       1.85970000      -0.97450000
H        1.18070000      -2.33880000      -3.22780000
H        2.00020000      -3.54240000      -2.19500000
H       -1.91780000      -5.10750000      -2.44680000
