19
Properties=species:S:1:pos:R:3 gdb_62020=T pbc="F F F"
C        0.00140000       1.46050000       0.14370000
C       -0.03090000      -0.07210000       0.00860000
C       -1.46250000      -0.61370000      -0.01310000
O       -2.09130000      -0.23840000       1.22240000
C       -3.39920000      -0.57060000       1.33850000
C       -3.94230000      -0.13030000       2.67570000
O       -4.01710000      -1.13850000       0.47570000
C        0.66420000      -0.47890000      -1.27970000
O        1.63710000      -1.18240000      -1.34740000
H        1.02940000       1.82490000       0.22080000
H       -0.46630000       1.94240000      -0.72290000
H       -0.54510000       1.76940000       1.03690000
H        0.51640000      -0.53800000       0.83380000
H       -2.03700000      -0.20260000      -0.85100000
H       -1.47650000      -1.70440000      -0.10590000
H       -3.84610000       0.95410000       2.78110000
H       -4.98950000      -0.41940000       2.75360000
H       -3.36600000      -0.58810000       3.48450000
H        0.20040000      -0.04990000      -2.20040000
