16
Properties=species:S:1:pos:R:3 gdb_53216=T pbc="F F F"
C        0.03130000       1.50140000      -0.17840000
C        0.02060000       0.05130000      -0.06220000
C        0.03930000      -1.14980000       0.03540000
C        0.00240000      -2.59060000       0.14110000
O        0.05100000      -3.06630000       1.53520000
C       -1.26200000      -3.49830000       1.49990000
N       -2.00650000      -3.92650000       2.41030000
C       -1.42890000      -3.23430000       0.00520000
O       -2.48970000      -2.48170000      -0.46960000
H        1.03740000       1.87220000      -0.40070000
H       -0.63500000       1.83760000      -0.97990000
H       -0.30160000       1.97230000       0.75270000
H        0.79350000      -3.07080000      -0.44020000
H       -1.52810000      -3.93960000       3.31310000
H       -1.40340000      -4.15810000      -0.57760000
H       -2.49340000      -1.63560000      -0.00510000
