16
Properties=species:S:1:pos:R:3 gdb_95115=T pbc="F F F"
O        0.09430000       1.37760000      -0.14550000
C        0.05270000      -0.02640000      -0.07850000
C        0.75100000      -0.63680000       1.16620000
C        0.01940000      -1.96090000       1.47270000
C       -1.38370000      -1.73030000       0.94710000
O       -1.94030000      -0.45940000       1.30800000
C       -1.36400000      -0.60370000      -0.00430000
C       -2.26530000      -0.48010000      -1.12170000
N       -2.95890000      -0.37810000      -2.04040000
H       -0.36380000       1.72130000       0.63100000
H        0.52010000      -0.37840000      -1.00480000
H        1.82150000      -0.76850000       1.00110000
H        0.62980000       0.06040000       1.99960000
H        0.46040000      -2.80410000       0.92880000
H        0.02700000      -2.21680000       2.53620000
H       -2.10400000      -2.53870000       0.85930000
