22
Properties=species:S:1:pos:R:3 gdb_118298=T pbc="F F F"
C        0.06550000       1.33810000       0.24470000
O        0.02800000      -0.06740000       0.18930000
C       -1.25410000      -0.57310000      -0.10970000
C       -1.19900000      -2.10120000      -0.09280000
C       -0.82510000      -2.63300000       1.29460000
C       -2.53980000      -2.66380000      -0.59610000
N       -2.53850000      -4.11010000      -0.74260000
C       -3.34570000      -4.93720000      -0.02490000
O       -4.15640000      -4.58400000       0.80490000
H        1.09250000       1.62970000       0.47720000
H       -0.22430000       1.79340000      -0.71590000
H       -0.60260000       1.73480000       1.02560000
H       -1.99250000      -0.21230000       0.62890000
H       -1.58450000      -0.21010000      -1.09910000
H       -0.41370000      -2.39310000      -0.80560000
H        0.11740000      -2.19240000       1.62620000
H       -1.59940000      -2.38160000       2.02860000
H       -0.71800000      -3.72100000       1.28610000
H       -3.34320000      -2.43600000       0.10980000
H       -2.79940000      -2.20180000      -1.55790000
H       -1.90190000      -4.52900000      -1.40230000
H       -3.17840000      -6.00030000      -0.29100000
