17
Properties=species:S:1:pos:R:3 gdb_43162=T pbc="F F F"
O       -0.00440000       0.06650000      -0.03620000
C       -0.01010000       1.26580000      -0.01730000
C       -1.20160000       2.22200000       0.03630000
C       -1.34160000       2.69710000       1.49870000
C        0.01680000       3.04460000       2.06220000
C        1.15620000       2.83140000       1.39920000
C        1.15670000       2.25390000      -0.01090000
C        0.61450000       3.27980000      -1.01880000
O       -0.80870000       3.31590000      -0.79220000
H       -2.12360000       1.78190000      -0.34940000
H       -2.01170000       3.56540000       1.52630000
H       -1.81770000       1.91190000       2.10290000
H        0.04430000       3.47610000       3.05920000
H        2.11650000       3.07680000       1.84200000
H        2.10920000       1.80690000      -0.29220000
H        1.01210000       4.28750000      -0.86680000
H        0.82120000       2.96650000      -2.05190000
