13
Properties=species:S:1:pos:R:3 gdb_8994=T pbc="F F F"
O       -0.08230000      -0.06020000      -0.00110000
C       -0.01650000       1.15140000       0.00680000
N        1.14310000       1.85460000       0.00380000
C        2.42750000       1.20820000      -0.01180000
C        3.52730000       2.25490000      -0.01940000
O        3.28830000       3.44450000      -0.01270000
C        4.87630000       1.73270000      -0.03530000
C        5.99010000       1.27770000      -0.04860000
H       -0.90460000       1.81260000       0.01780000
H        1.15200000       2.86470000       0.00830000
H        2.56700000       0.55190000       0.85880000
H        2.54850000       0.55820000      -0.88990000
H        6.98010000       0.88940000      -0.06110000
