17
Properties=species:S:1:pos:R:3 gdb_61096=T pbc="F F F"
C       -0.06590000       1.56470000      -0.04680000
C       -0.04540000       0.01430000      -0.02500000
C        0.69980000      -0.50330000       1.26020000
C        0.10230000      -0.05620000       2.50950000
C       -0.38390000       0.31820000       3.54270000
C       -1.41990000      -0.50460000      -0.04680000
C       -2.54760000      -0.91710000      -0.05310000
C        0.68830000      -0.48620000      -1.19660000
C        1.32310000      -0.88180000      -2.13660000
H        0.95810000       1.94820000      -0.05000000
H       -0.57690000       1.92140000      -0.94280000
H       -0.58730000       1.93840000       0.83660000
H        0.72160000      -1.59710000       1.22390000
H        1.73930000      -0.16180000       1.19600000
H       -0.81590000       0.63960000       4.45790000
H       -3.54330000      -1.28650000      -0.06230000
H        1.86720000      -1.23610000      -2.97710000
