15
Properties=species:S:1:pos:R:3 gdb_131463=T pbc="F F F"
O        0.03660000       1.17740000      -0.25050000
C       -0.06430000      -0.18940000      -0.03040000
C       -0.50650000      -0.62620000       1.35700000
C       -1.48880000      -0.67120000       0.17740000
C       -1.41880000      -2.17730000       0.30880000
C       -1.25230000      -3.44710000      -0.20210000
C       -0.29610000      -4.02140000       0.68800000
N        0.15950000      -3.17290000       1.61740000
N       -0.61460000      -2.08740000       1.40650000
H        0.92940000       1.45770000      -0.02160000
H        0.63050000      -0.82310000      -0.58240000
H       -0.49710000       0.00200000       2.23720000
H       -2.34130000      -0.03300000      -0.00430000
H       -1.72700000      -3.91920000      -1.04610000
H        0.05770000      -5.04370000       0.68890000
