15
Properties=species:S:1:pos:R:3 gdb_98936=T pbc="F F F"
C        0.70840000       1.04110000       0.40310000
O        0.04180000      -0.06610000      -0.22310000
C        0.69930000      -0.62140000      -1.25550000
O        1.77870000      -0.26070000      -1.64770000
C       -0.12330000      -1.74340000      -1.86720000
C        0.68920000      -2.57500000      -2.85210000
O        0.43640000      -2.60420000      -4.03420000
C        1.76260000      -3.36260000      -2.27500000
C        2.63170000      -4.03560000      -1.78550000
H        0.87310000       1.84640000      -0.31680000
H        0.04510000       1.37060000       1.20230000
H        1.67330000       0.72740000       0.80840000
H       -0.51840000      -2.37600000      -1.06570000
H       -0.97160000      -1.31000000      -2.40530000
H        3.41000000      -4.62790000      -1.36880000
