19
Properties=species:S:1:pos:R:3 gdb_82440=T pbc="F F F"
C       -0.03700000       1.45000000       0.06010000
C       -0.01600000      -0.04540000      -0.02980000
C        0.02770000      -1.09230000       1.09410000
C       -0.39390000      -2.12770000      -0.02810000
C        1.09160000      -2.21800000      -0.47870000
C        1.24680000      -0.86860000       0.21660000
O        2.41620000      -0.19440000       0.50030000
C       -0.95930000      -0.93490000      -0.84690000
O       -2.32570000      -0.65840000      -0.63030000
H        0.61670000       1.80480000       0.86120000
H        0.31030000       1.90370000      -0.87530000
H       -1.05260000       1.81300000       0.24880000
H       -0.11800000      -1.02390000       2.16270000
H       -0.99540000      -3.02210000       0.11930000
H        1.63040000      -3.00770000       0.05640000
H        1.29660000      -2.29230000      -1.55330000
H        2.94060000      -0.73730000       1.09930000
H       -0.83610000      -0.97300000      -1.93530000
H       -2.45150000      -0.56160000       0.32200000
