18
Properties=species:S:1:pos:R:3 gdb_10024=T pbc="F F F"
C       -0.10540000       1.53540000      -0.05000000
C       -0.06440000       0.00900000       0.01330000
C        0.72660000      -0.53320000       1.23990000
C        0.11600000      -0.11080000       2.50650000
C       -0.39510000       0.25080000       3.53200000
C        0.86500000      -1.99240000       1.17690000
C        0.97030000      -3.18840000       1.09690000
C        1.10060000      -4.63610000       1.01380000
H        0.90340000       1.95720000      -0.12420000
H       -0.67090000       1.87010000      -0.92470000
H       -0.57930000       1.95450000       0.84210000
H       -1.07820000      -0.40210000       0.05220000
H        0.41090000      -0.39900000      -0.88460000
H        1.73400000      -0.09140000       1.19470000
H       -0.83950000       0.55950000       4.44560000
H        0.67590000      -5.12260000       1.89880000
H        0.58000000      -5.03340000       0.13550000
H        2.15110000      -4.93830000       0.94140000
