24
Properties=species:S:1:pos:R:3 gdb_102671=T pbc="F F F"
C       -0.32060000       1.54110000       0.61960000
C       -0.17750000       0.04180000       0.33670000
C       -1.50800000      -0.68680000       0.05070000
C       -2.05370000      -0.32720000      -1.34750000
C       -3.53380000      -0.65930000      -1.56420000
C       -1.35100000      -2.21400000       0.19540000
C       -1.25100000      -2.68550000       1.66160000
C       -1.09530000      -4.13440000       1.77170000
N       -0.97300000      -5.28160000       1.83960000
H        0.65500000       1.99550000       0.81750000
H       -0.76690000       2.08000000      -0.22180000
H       -0.95280000       1.71680000       1.49710000
H        0.49650000      -0.11320000      -0.51690000
H        0.32140000      -0.42230000       1.19610000
H       -2.24620000      -0.34980000       0.79560000
H       -1.91110000       0.74490000      -1.52150000
H       -1.44280000      -0.83760000      -2.10480000
H       -3.74250000      -1.72830000      -1.45500000
H       -4.16570000      -0.12420000      -0.84650000
H       -3.85490000      -0.36810000      -2.56900000
H       -2.20070000      -2.72730000      -0.26410000
H       -0.45920000      -2.54430000      -0.35080000
H       -0.40550000      -2.21260000       2.17250000
H       -2.15280000      -2.39220000       2.21210000
