17
Properties=species:S:1:pos:R:3 gdb_79503=T pbc="F F F"
C        0.07530000       1.54170000      -0.12270000
N        0.04920000       0.08260000      -0.03440000
C       -1.10740000      -0.48810000       0.71310000
C       -0.28410000      -1.73830000       1.16380000
N       -0.59930000      -1.61570000       2.62330000
C       -0.54230000      -0.20050000       2.15750000
C        0.67940000      -0.52180000       1.18320000
C        2.13830000      -0.47430000       1.49410000
O        2.74610000      -1.36260000       2.03400000
H        1.05670000       1.87110000      -0.47740000
H       -0.66610000       1.86240000      -0.86150000
H       -0.14120000       2.06040000       0.82640000
H       -2.13790000      -0.43670000       0.35380000
H       -0.13490000      -2.68310000       0.64390000
H       -1.57110000      -1.88560000       2.79740000
H       -0.68640000       0.64740000       2.82720000
H        2.64050000       0.47370000       1.19370000
