18
Properties=species:S:1:pos:R:3 gdb_69243=T pbc="F F F"
C       -0.21810000       1.46420000       0.03100000
C        0.06520000      -0.02320000      -0.07760000
C        1.49910000      -0.49420000      -0.04330000
N        0.62510000      -0.66090000       1.11000000
C        0.19830000      -1.94120000       1.49340000
O        0.95140000      -2.78240000       1.91940000
C       -1.29670000      -2.15510000       1.28180000
C       -1.62190000      -1.79820000      -0.15600000
C       -0.96690000      -0.82630000      -0.79190000
H        0.56170000       1.96460000       0.61070000
H       -0.25810000       1.91970000      -0.96430000
H       -1.18030000       1.64110000       0.52190000
H        1.76350000      -1.39460000      -0.59090000
H        2.29820000       0.23510000       0.06350000
H       -1.52750000      -3.19770000       1.50720000
H       -1.87340000      -1.53010000       1.97640000
H       -2.38920000      -2.37670000      -0.66220000
H       -1.20320000      -0.55830000      -1.81780000
