21
Properties=species:S:1:pos:R:3 gdb_102528=T pbc="F F F"
C       -0.09110000       1.56460000       0.06590000
C        0.03510000       0.02850000       0.01110000
C       -1.37490000      -0.53550000       0.03400000
O       -1.84480000      -1.21000000       0.91340000
C        0.79130000      -0.48370000      -1.24330000
C        2.23790000       0.04870000      -1.32110000
O        2.83160000      -0.13360000      -2.58700000
C        0.77640000      -2.01820000      -1.26020000
O        1.41590000      -2.47890000      -2.45170000
H        0.88340000       2.04530000       0.16890000
H       -0.56470000       1.95410000      -0.84180000
H       -0.69980000       1.86830000       0.92310000
H        0.53380000      -0.33170000       0.91870000
H       -1.98520000      -0.24810000      -0.85680000
H        0.26760000      -0.12780000      -2.14150000
H        2.25700000       1.12570000      -1.13430000
H        2.82970000      -0.42630000      -0.51680000
H        2.67790000      -1.05710000      -2.82740000
H        1.30050000      -2.39370000      -0.36740000
H       -0.25420000      -2.39850000      -1.21830000
H        1.52370000      -3.43260000      -2.39470000
