21
Properties=species:S:1:pos:R:3 gdb_112976=T pbc="F F F"
C       -0.92240000       1.38940000       0.09140000
O       -0.25130000       0.20310000       0.45080000
C       -0.94260000      -0.95770000       0.07440000
C       -0.89680000      -1.39640000      -1.41940000
C       -0.58350000      -2.84800000      -0.93400000
C       -0.22650000      -2.26300000       0.46510000
C       -1.77890000      -3.76690000      -0.98090000
C       -2.07780000      -4.77230000       0.04490000
O       -2.82240000      -3.55210000      -0.02300000
H       -0.31860000       2.22750000       0.44790000
H       -1.04420000       1.48120000      -0.99870000
H       -1.92050000       1.44750000       0.55350000
H       -1.97580000      -0.93470000       0.44880000
H       -1.79580000      -1.25680000      -2.02540000
H       -0.04060000      -0.94370000      -1.92680000
H        0.24050000      -3.33810000      -1.46210000
H        0.84760000      -2.08980000       0.56360000
H       -0.59400000      -2.78310000       1.35100000
H       -2.15210000      -3.96280000      -1.98910000
H       -2.63110000      -5.67120000      -0.22350000
H       -1.42450000      -4.87210000       0.91010000
