18
Properties=species:S:1:pos:R:3 gdb_103722=T pbc="F F F"
C        0.19070000       1.21700000       0.29430000
O       -0.24550000      -0.01010000      -0.26300000
C        0.54840000      -0.49830000      -1.29360000
C        0.38970000       0.20930000      -2.62210000
C        1.87520000      -1.11530000      -0.91420000
C        0.68730000      -2.01660000      -1.25510000
O        0.02350000      -2.67290000      -0.22480000
C        0.72120000      -2.74720000      -2.50620000
N        0.75950000      -3.35530000      -3.48960000
H        1.22740000       1.15360000       0.65330000
H        0.11790000       2.04780000      -0.42030000
H       -0.46770000       1.42370000       1.14040000
H        0.77280000       1.23280000      -2.56160000
H        0.93390000      -0.30380000      -3.41780000
H       -0.66810000       0.25050000      -2.89720000
H        2.70680000      -1.06240000      -1.60770000
H        2.13280000      -1.11240000       0.13900000
H        0.54910000      -3.44060000       0.02920000
