18
Properties=species:S:1:pos:R:3 gdb_80440=T pbc="F F F"
C       -0.14970000       1.46600000      -0.26230000
N        0.13340000       0.07270000       0.06600000
C        1.40770000      -0.56820000      -0.09630000
C        2.60130000       0.31600000       0.33970000
C        2.01700000       0.35740000       1.78220000
O        2.72170000      -0.44460000       2.71330000
C        1.82440000       1.68230000       2.48970000
O        1.75290000       2.75590000       1.94790000
C        0.74890000      -0.41240000       1.26410000
H        0.67060000       2.16360000      -0.07100000
H       -0.42160000       1.51180000      -1.32140000
H       -1.01570000       1.78910000       0.32270000
H        1.47410000      -1.44470000      -0.73290000
H        3.56170000      -0.20370000       0.33670000
H        2.70780000       1.27400000      -0.17330000
H        2.71090000      -1.35420000       2.39460000
H        1.75130000       1.57660000       3.59390000
H        0.21980000      -1.12160000       1.89610000
