15
Properties=species:S:1:pos:R:3 gdb_19345=T pbc="F F F"
O       -0.07880000       0.01140000       0.02280000
C        0.01810000       1.21750000      -0.01800000
C        1.27990000       1.94510000       0.07510000
C        1.37490000       3.42890000       0.37680000
C        1.84080000       2.96220000      -0.95120000
N        3.15220000       2.22910000      -1.06320000
C        3.81020000       2.14000000       0.25910000
C        2.65370000       1.26600000      -0.00770000
H       -0.87710000       1.86870000      -0.14750000
H        0.41450000       3.93590000       0.33980000
H        2.02770000       3.79720000       1.15930000
H        1.38540000       3.28120000      -1.87970000
H        4.79100000       1.68120000       0.17720000
H        3.77070000       2.96410000       0.96200000
H        2.72880000       0.19610000      -0.15920000
