19
Properties=species:S:1:pos:R:3 gdb_106355=T pbc="F F F"
C       -0.20600000       1.52710000      -0.04390000
C        0.06540000       0.01860000       0.00300000
C        0.80570000      -0.49920000      -1.20350000
C        0.89760000      -2.00850000      -1.55820000
C        0.95640000      -1.38260000      -2.96890000
O        0.10090000      -0.29830000      -2.49120000
C        2.32040000      -0.67280000      -2.93350000
O        3.21220000      -0.67250000      -3.73340000
C        2.20800000       0.04280000      -1.56710000
H        0.72220000       2.10650000      -0.02790000
H       -0.75340000       1.79120000      -0.95300000
H       -0.80490000       1.83660000       0.81710000
H        0.64750000      -0.23820000       0.89750000
H       -0.88350000      -0.52500000       0.07770000
H        1.74610000      -2.59410000      -1.19360000
H       -0.04930000      -2.52350000      -1.38860000
H        0.63310000      -1.86970000      -3.88610000
H        2.21960000       1.12840000      -1.68580000
H        3.01240000      -0.25100000      -0.88650000
