17
Properties=species:S:1:pos:R:3 gdb_64993=T pbc="F F F"
N       -1.18480000       1.05260000      -0.62440000
C       -0.13310000       0.18300000      -0.17100000
C        0.10210000       0.17330000       1.33060000
C       -0.58200000      -0.99200000       0.68240000
C        1.03380000       0.02780000      -1.12390000
O        1.05600000       0.60370000      -2.18340000
N        2.07390000      -0.81920000      -0.69830000
C        3.25070000      -1.13140000      -1.37650000
O        3.59070000      -0.73170000      -2.45380000
H       -0.79090000       1.96880000      -0.82580000
H       -1.52540000       0.71720000      -1.52250000
H        1.11530000       0.06470000       1.70220000
H       -0.51230000       0.86540000       1.89330000
H       -1.65380000      -1.07910000       0.81180000
H       -0.06040000      -1.93820000       0.58780000
H        1.97790000      -1.26330000       0.20190000
H        3.86040000      -1.82880000      -0.76450000
