20
Properties=species:S:1:pos:R:3 gdb_13617=T pbc="F F F"
C        1.54870000       2.66340000       0.47380000
C        0.70850000       1.37810000       0.46550000
C        0.76310000       0.65780000      -0.89290000
O        0.27150000       1.44280000      -1.96630000
C        1.18130000       0.44130000       1.55730000
O        0.90060000       0.80910000       2.91300000
C        0.31200000      -0.39510000       2.40480000
C       -1.19200000      -0.45330000       2.32090000
H        2.60240000       2.45090000       0.25340000
H        1.18100000       3.38210000      -0.26550000
H        1.50180000       3.14320000       1.45490000
H       -0.33510000       1.65010000       0.65320000
H        1.79280000       0.31460000      -1.08970000
H        0.12740000      -0.23350000      -0.86290000
H        0.89860000       2.15410000      -2.12650000
H        2.20630000       0.08500000       1.41420000
H        0.76780000      -1.30000000       2.81420000
H       -1.61510000       0.46300000       1.90520000
H       -1.50710000      -1.29910000       1.70010000
H       -1.61680000      -0.59730000       3.31990000
