20
Properties=species:S:1:pos:R:3 gdb_22612=T pbc="F F F"
C       -0.09260000       1.63350000      -0.01830000
C        0.06200000       0.11580000      -0.01670000
C        0.73990000      -0.59680000      -1.20870000
C        2.18930000      -0.23220000      -1.29120000
C        1.77070000      -1.26880000      -0.26280000
C        2.32990000      -2.66150000      -0.21670000
C        1.11080000      -0.56110000       0.87110000
N        1.29290000      -0.70290000       2.11750000
O        0.37200000       0.08110000       2.85210000
H        0.85130000       2.13860000      -0.24330000
H       -0.82690000       1.94480000      -0.76910000
H       -0.43170000       1.97820000       0.96180000
H       -0.90630000      -0.34930000       0.20550000
H        0.21220000      -1.05570000      -2.03590000
H        2.72640000      -0.64790000      -2.13880000
H        2.54420000       0.74800000      -0.98630000
H        2.52710000      -3.03700000      -1.22570000
H        3.27310000      -2.68640000       0.33990000
H        1.63650000      -3.34930000       0.27790000
H        0.61800000      -0.12210000       3.76040000
