18
Properties=species:S:1:pos:R:3 gdb_66915=T pbc="F F F"
C       -0.00610000       1.53130000      -0.05640000
C       -0.04340000       0.03920000      -0.00710000
C        0.54670000      -1.01360000      -0.92560000
N        1.20070000      -0.72070000       0.35910000
C        0.73330000      -2.05190000       0.90020000
C       -0.34100000      -2.11280000      -0.19870000
C       -0.96650000      -3.36810000      -0.73430000
C       -1.20870000      -0.88990000       0.18020000
O       -2.39200000      -0.72620000       0.29650000
H        0.93420000       1.87970000      -0.49110000
H       -0.83840000       1.91460000      -0.65380000
H       -0.08880000       1.95250000       0.95050000
H        0.97590000      -0.90330000      -1.91260000
H        1.54540000      -2.77190000       0.76630000
H        0.40550000      -2.04410000       1.94640000
H       -1.53880000      -3.86870000       0.05400000
H       -1.66100000      -3.14630000      -1.55060000
H       -0.21160000      -4.07030000      -1.10200000
