21
Properties=species:S:1:pos:R:3 gdb_39107=T pbc="F F F"
C       -0.06780000       1.55460000      -0.16650000
C        1.40860000       2.13880000      -0.05650000
C        2.20900000       0.84520000      -0.15030000
C        3.31750000       0.04570000       0.60120000
C        3.12880000       0.37070000       2.09070000
C        1.58470000       0.18580000       2.12300000
C        1.37310000      -0.14710000       0.62430000
C       -0.01920000      -0.01890000       0.05320000
O        2.45150000      -1.14370000       0.42950000
H       -0.72170000       2.02600000       0.57130000
H       -0.49280000       1.77800000      -1.14800000
H        1.61640000       2.85380000      -0.85570000
H        1.54610000       2.66170000       0.89380000
H        2.23960000       0.50500000      -1.19010000
H        4.32180000      -0.09490000       0.20230000
H        3.66000000      -0.34010000       2.72690000
H        3.45690000       1.38200000       2.34860000
H        1.27070000      -0.66190000       2.73640000
H        1.04010000       1.07130000       2.45980000
H       -0.82510000      -0.36420000       0.70640000
H       -0.10250000      -0.54510000      -0.90140000
