24
Properties=species:S:1:pos:R:3 gdb_96664=T pbc="F F F"
C        0.07850000       1.64150000      -0.10000000
N        0.00600000       0.19640000       0.02810000
C        0.51200000      -0.51860000      -0.89040000
C        1.20310000      -0.02520000      -2.14180000
O        0.50030000      -1.86740000      -0.87220000
C       -0.09530000      -2.65660000       0.20590000
C       -1.60120000      -2.38880000       0.30440000
C        0.16070000      -4.09280000      -0.26180000
C        0.62570000      -2.39180000       1.53230000
H        1.11310000       2.01330000      -0.14070000
H       -0.43610000       2.01530000      -0.99750000
H       -0.40100000       2.10160000       0.76810000
H        2.06530000       0.59710000      -1.88020000
H        1.53830000      -0.86230000      -2.75310000
H        0.52380000       0.60050000      -2.73030000
H       -2.07820000      -2.54190000      -0.66880000
H       -2.04970000      -3.09030000       1.01550000
H       -1.79650000      -1.37050000       0.63800000
H        1.23320000      -4.27630000      -0.37210000
H       -0.24060000      -4.80470000       0.46520000
H       -0.31950000      -4.27460000      -1.22750000
H        0.45090000      -1.37300000       1.87580000
H        0.26120000      -3.09230000       2.29070000
H        1.70280000      -2.54830000       1.41650000
