23
Properties=species:S:1:pos:R:3 gdb_59829=T pbc="F F F"
C       -0.04270000       1.57060000       0.00860000
C        0.03650000       0.03980000       0.03840000
C        0.81710000      -0.45740000       1.25960000
C       -1.38880000      -0.56500000      -0.01000000
C       -1.41690000      -2.01880000      -0.12860000
C       -1.41200000      -3.22090000      -0.22330000
C       -1.44090000      -4.67800000      -0.38970000
C       -2.87650000      -5.22230000      -0.35090000
O       -0.76010000      -5.08990000      -1.57520000
H        0.95750000       2.01510000       0.00510000
H       -0.57250000       1.92910000      -0.88060000
H       -0.57180000       1.95350000       0.88970000
H        0.56140000      -0.29750000      -0.86470000
H        1.83910000      -0.06520000       1.25730000
H        0.33700000      -0.12850000       2.18960000
H        0.87040000      -1.54940000       1.27610000
H       -1.93530000      -0.26360000       0.89520000
H       -1.93760000      -0.12320000      -0.85230000
H       -0.86990000      -5.14210000       0.42390000
H       -3.47520000      -4.77750000      -1.15240000
H       -2.85860000      -6.30710000      -0.48510000
H       -3.35720000      -4.98640000       0.60310000
H       -1.11640000      -4.56840000      -2.30300000
