18
Properties=species:S:1:pos:R:3 gdb_33877=T pbc="F F F"
C        0.04300000      -1.14020000      -0.02890000
C        0.03830000       0.06310000       0.01370000
C       -0.00900000       1.48720000       0.05780000
N        0.32510000       2.29440000      -1.15730000
C        1.19010000       2.38010000       0.03420000
C        0.77760000       3.43980000       1.07430000
C       -0.70830000       3.72220000       0.71630000
C       -0.88350000       2.22900000       1.10310000
C        0.20580000       2.50380000       2.19800000
H        0.05650000      -2.20120000      -0.06280000
H        0.76320000       1.66740000      -1.83060000
H        2.20120000       1.99170000      -0.00080000
H        1.48740000       4.23910000       1.28590000
H       -1.17670000       4.37730000       1.45300000
H       -0.95130000       4.03100000      -0.29770000
H       -1.85290000       1.79040000       1.33440000
H        0.82060000       1.66030000       2.52470000
H       -0.18030000       3.05370000       3.05970000
