18
Properties=species:S:1:pos:R:3 gdb_30616=T pbc="F F F"
C        0.03790000       1.53810000       0.01030000
C       -0.04410000       0.01360000       0.00380000
C       -1.48020000      -0.51120000       0.01240000
O       -2.42880000       0.25200000       0.02320000
C       -1.67540000      -1.96920000       0.00780000
C       -0.70930000      -2.96330000      -0.00370000
N       -1.34840000      -4.16590000      -0.00390000
C       -2.71510000      -3.97420000       0.00740000
C       -2.94670000      -2.62620000       0.01480000
H        1.08010000       1.87040000       0.00360000
H       -0.46700000       1.95870000      -0.86280000
H       -0.45300000       1.95050000       0.89530000
H        0.46490000      -0.40250000      -0.87610000
H        0.47850000      -0.41070000       0.87170000
H        0.36710000      -2.90630000      -0.01170000
H       -0.89110000      -5.06130000      -0.01120000
H       -3.38940000      -4.81530000       0.00910000
H       -3.90140000      -2.12620000       0.02420000
