14
Properties=species:S:1:pos:R:3 gdb_44118=T pbc="F F F"
N       -0.08210000       0.94060000      -0.69530000
C       -0.00890000      -0.11820000      -0.03090000
O        1.13180000      -0.76680000       0.38310000
C        0.77300000      -1.92780000       1.08480000
C       -0.71460000      -1.94770000       1.08470000
O       -1.11340000      -0.79890000       0.38940000
C        0.04450000      -3.01470000       0.28980000
C        0.04770000      -3.03910000      -1.13890000
C        0.05030000      -3.04980000      -2.34060000
H        0.84770000       1.29060000      -0.91080000
H        1.43110000      -2.16190000       1.91110000
H       -1.36500000      -2.20450000       1.91010000
H        0.05620000      -3.98220000       0.78680000
H        0.04770000      -3.05430000      -3.40250000
