14
Properties=species:S:1:pos:R:3 gdb_2405=T pbc="F F F"
C        0.01760000       1.50730000      -0.09790000
N        0.00600000       0.04900000       0.05230000
C       -1.14690000      -0.59210000       0.81490000
C       -0.19780000      -1.80280000       1.01320000
C        0.69530000      -0.56020000       1.26690000
C       -0.49130000       0.02830000       2.08040000
O       -0.72760000       0.75650000       2.99180000
H        1.00950000       1.80740000      -0.44870000
H       -0.70850000       1.77760000      -0.87040000
H       -0.21670000       2.07190000       0.81680000
H       -2.16930000      -0.56990000       0.44230000
H       -0.39260000      -2.46870000       1.85440000
H        0.03930000      -2.32180000       0.08380000
H        1.77270000      -0.50170000       1.40950000
