19
Properties=species:S:1:pos:R:3 gdb_75216=T pbc="F F F"
C        0.25830000       1.43100000       0.06760000
C        0.00200000      -0.03950000      -0.02000000
C        0.00620000      -0.81040000      -1.11350000
C       -0.26450000      -2.26980000      -0.84020000
C       -0.33850000      -2.33890000       0.70010000
O       -1.32640000      -3.19500000       1.21490000
C        0.98270000      -2.51100000       1.47640000
O        0.94350000      -1.15490000       1.97200000
C       -0.26110000      -0.86890000       1.20930000
H        1.11150000       1.63010000       0.72690000
H        0.47080000       1.86670000      -0.91250000
H       -0.60180000       1.95880000       0.49900000
H        0.18910000      -0.44000000      -2.11800000
H       -1.21160000      -2.60500000      -1.28910000
H        0.51070000      -2.93030000      -1.24870000
H       -2.15680000      -3.00570000       0.76500000
H        0.91510000      -3.24640000       2.28500000
H        1.87370000      -2.70560000       0.86700000
H       -1.05920000      -0.49430000       1.86210000
