16
Properties=species:S:1:pos:R:3 gdb_69697=T pbc="F F F"
O       -0.11670000       1.40890000       0.21370000
C       -0.04070000       0.04680000       0.01790000
C       -0.38590000      -0.65500000      -1.26370000
C       -1.18080000      -0.95210000      -0.00510000
C       -0.39170000      -1.86310000       0.98030000
C        0.73540000      -0.88450000       1.01520000
N        0.90660000      -2.20660000       0.41730000
C        1.73150000      -3.19880000       0.91510000
O        1.36760000      -4.29590000       1.26350000
H        0.56010000       1.83320000      -0.32650000
H       -0.92110000      -0.02250000      -1.96520000
H        0.26480000      -1.40250000      -1.70240000
H       -2.24580000      -0.77990000       0.06590000
H       -0.80680000      -2.46390000       1.77810000
H        1.33370000      -0.55490000       1.85630000
H        2.79400000      -2.88770000       0.89100000
