20
Properties=species:S:1:pos:R:3 gdb_94783=T pbc="F F F"
C        0.09940000       1.61100000       0.02720000
C        0.12120000       0.08610000      -0.01920000
C        0.82270000      -0.57130000      -1.22350000
C        1.16050000      -2.00060000      -0.73940000
C        1.52270000      -1.80540000       0.72470000
C        1.86300000      -2.88720000       1.68140000
N        2.90960000      -1.96180000       1.23900000
C        0.81800000      -0.54850000       1.19270000
O        0.80640000      -0.12800000       2.32140000
H        1.11170000       2.01760000      -0.06850000
H       -0.51050000       2.02520000      -0.78110000
H       -0.30680000       1.95140000       0.98330000
H       -0.91490000      -0.28820000       0.02120000
H        0.21140000      -0.56570000      -2.12930000
H        1.74770000      -0.02570000      -1.44770000
H        0.27580000      -2.64360000      -0.82810000
H        1.96140000      -2.47100000      -1.31780000
H        1.56820000      -2.76700000       2.72020000
H        1.86420000      -3.90790000       1.30600000
H        3.47000000      -2.40600000       0.51310000
