18
Properties=species:S:1:pos:R:3 gdb_87465=T pbc="F F F"
O       -0.04660000       1.36130000      -0.07480000
C        0.04670000      -0.03120000      -0.00950000
C       -0.40250000      -0.78520000       1.24940000
C       -1.19390000      -0.83610000      -0.01460000
N       -2.56090000      -0.19600000      -0.20870000
C       -2.41820000      -0.65220000      -1.67190000
C       -1.89920000      -1.87930000      -0.86950000
O       -1.32910000      -3.06170000      -1.29000000
C       -3.11250000      -1.60610000       0.06820000
H       -0.98270000       1.58580000       0.00530000
H        0.93380000      -0.39380000      -0.52030000
H        0.16410000      -1.66220000       1.54740000
H       -0.79310000      -0.18730000       2.06780000
H       -3.37900000      -0.74000000      -2.18690000
H       -1.69450000      -0.06610000      -2.24080000
H       -1.97050000      -3.55070000      -1.81700000
H       -3.03010000      -1.90690000       1.11390000
H       -4.12030000      -1.75600000      -0.32940000
