17
Properties=species:S:1:pos:R:3 gdb_70490=T pbc="F F F"
O        0.10920000       1.38000000      -0.08550000
C        0.02950000       0.00220000      -0.04020000
C       -0.32030000      -0.84030000      -1.23390000
C       -1.21980000      -0.88450000      -0.02250000
C       -0.58130000      -1.79870000       1.02980000
C        0.63790000      -0.82720000       1.07980000
O        1.92260000      -1.39570000       0.81750000
C        2.90600000      -1.21650000       1.71870000
O        4.00880000      -1.64970000       1.57010000
H        0.77800000       1.62780000      -0.73300000
H       -0.70910000      -0.25950000      -2.06430000
H        0.27730000      -1.70320000      -1.51640000
H       -2.25830000      -0.58490000      -0.06050000
H       -1.11750000      -1.85520000       1.97890000
H       -0.34020000      -2.80940000       0.68920000
H        0.66720000      -0.25570000       2.01370000
H        2.57850000      -0.62820000       2.59880000
