20
Properties=species:S:1:pos:R:3 gdb_107069=T pbc="F F F"
O        0.04220000       1.24840000      -0.58780000
C        0.01530000       0.03730000       0.15200000
C       -1.38590000      -0.51320000       0.24540000
C       -2.41590000       0.17860000       1.13290000
C       -3.58810000      -0.82090000       1.22550000
C       -2.95920000      -2.22110000       1.00150000
O       -3.81640000      -3.13530000       0.33310000
C       -1.72320000      -1.96080000       0.16130000
N       -1.87270000      -1.09650000      -1.01950000
H       -0.31730000       1.03240000      -1.45650000
H        0.67550000      -0.71980000      -0.29580000
H        0.40300000       0.27870000       1.14790000
H       -1.97150000       0.35070000       2.12060000
H       -2.71350000       1.15810000       0.74530000
H       -4.12480000      -0.75290000       2.17570000
H       -4.32540000      -0.64730000       0.43470000
H       -2.62960000      -2.64420000       1.96470000
H       -4.56890000      -3.31360000       0.90600000
H       -0.97730000      -2.74530000       0.07530000
H       -2.85270000      -0.88770000      -1.19300000
