12
Properties=species:S:1:pos:R:3 gdb_519=T pbc="F F F"
O        0.02200000       1.23430000       0.68500000
C       -0.03830000       0.08990000      -0.15780000
C       -1.38100000      -0.47260000      -0.13410000
C       -2.48100000      -0.95930000      -0.12630000
C       -3.82400000      -1.52170000      -0.13040000
O       -3.86830000      -2.67510000       0.70090000
H        0.92590000       1.56430000       0.65500000
H        0.22550000       0.34630000      -1.19710000
H        0.67440000      -0.68530000       0.16810000
H       -4.53020000      -0.75010000       0.21740000
H       -4.10750000      -1.76680000      -1.16720000
H       -4.77260000      -3.00490000       0.68460000
