21
Properties=species:S:1:pos:R:3 gdb_15431=T pbc="F F F"
C       -0.06880000       1.52580000      -0.23260000
C        0.16920000       0.01950000      -0.10150000
C        0.47560000      -0.40410000       1.33580000
N        0.62700000      -1.85650000       1.41450000
C        1.95940000      -2.42430000       1.22220000
C        1.30590000      -2.45790000       2.56010000
C        1.85450000      -1.67020000       3.73440000
O        2.87140000      -0.76810000       3.32010000
H        0.80710000       2.09790000       0.09370000
H       -0.28090000       1.80630000      -1.26880000
H       -0.91920000       1.84880000       0.37890000
H       -0.70690000      -0.53750000      -0.45260000
H        1.00480000      -0.28160000      -0.74610000
H        1.35940000       0.13490000       1.70710000
H       -0.36850000      -0.12670000       1.98200000
H        2.01430000      -3.32140000       0.61040000
H        2.79550000      -1.73750000       1.11530000
H        0.84030000      -3.38800000       2.88620000
H        1.03030000      -1.13160000       4.22960000
H        2.25050000      -2.39420000       4.46460000
H        3.07710000      -0.18970000       4.06060000
