17
Properties=species:S:1:pos:R:3 gdb_25597=T pbc="F F F"
O       -0.27540000       0.02530000       0.01520000
C       -0.03350000       1.20380000       0.07360000
C        1.32720000       1.82640000      -0.11610000
C        1.31480000       2.92910000      -1.19720000
C        2.59980000       3.69550000      -1.23780000
C        3.48330000       3.84180000      -2.27600000
N        4.49700000       4.63970000      -1.78870000
C        4.18880000       4.93460000      -0.49570000
N        3.05540000       4.38360000      -0.13100000
H       -0.84560000       1.94230000       0.28080000
H        1.62040000       2.29520000       0.83310000
H        2.05160000       1.04160000      -0.34940000
H        1.11740000       2.48780000      -2.17990000
H        0.48690000       3.61930000      -0.98730000
H        3.48680000       3.46760000      -3.28620000
H        5.31140000       4.94300000      -2.29530000
H        4.82390000       5.55140000       0.12270000
