15
Properties=species:S:1:pos:R:3 gdb_18918=T pbc="F F F"
O       -0.08350000       1.40370000       0.09270000
C        0.04810000       0.03680000       0.03800000
C       -0.07190000      -0.83670000      -1.20670000
C        0.95930000      -1.94640000      -1.19510000
C        1.04080000      -2.14430000       0.30390000
C        0.80650000      -0.87140000       1.03320000
N       -0.28150000      -1.90110000       0.96850000
C       -1.00850000      -1.01820000      -0.02430000
H        0.65340000       1.80250000      -0.38410000
H       -0.46170000      -0.38870000      -2.11210000
H        0.61630000      -2.84860000      -1.71240000
H        1.92310000      -1.64520000      -1.62080000
H        1.62570000      -2.94550000       0.74290000
H        1.25180000      -0.57050000       1.97470000
H       -2.08900000      -0.99570000      -0.05140000
