15
Properties=species:S:1:pos:R:3 gdb_10365=T pbc="F F F"
C       -0.29750000      -1.27850000      -0.36110000
C       -0.15730000      -0.09930000      -0.17980000
C        0.04960000       1.31500000       0.08120000
C       -0.08410000       1.80730000       1.57740000
C        1.18360000       2.67510000       1.38400000
C        1.54120000       1.83610000       0.13270000
C       -0.76370000       2.13960000      -0.81720000
N       -1.39190000       2.81830000      -1.51050000
H       -0.43190000      -2.31800000      -0.53310000
H       -1.02100000       2.30090000       1.83660000
H        0.08270000       0.96330000       2.24890000
H        0.93520000       3.70680000       1.12520000
H        1.90810000       2.68160000       2.19920000
H        2.20500000       1.00100000       0.36220000
H        1.89830000       2.35260000      -0.75850000
