18
Properties=species:S:1:pos:R:3 gdb_56956=T pbc="F F F"
C        0.31710000       1.51360000       0.00630000
C        0.11860000      -0.01820000      -0.01390000
C        0.71230000      -0.61290000      -1.20830000
C        1.21220000      -1.08330000      -2.19490000
C        0.61250000      -0.65440000       1.28810000
C        1.01490000      -2.10130000       1.38630000
N        1.98550000      -1.04420000       1.51790000
C        3.12480000      -0.86920000       0.75630000
O        3.87080000      -1.75760000       0.42590000
H        1.38010000       1.76860000       0.02500000
H       -0.12640000       1.96930000      -0.88200000
H       -0.15780000       1.94580000       0.89240000
H       -0.96390000      -0.21110000      -0.04080000
H        1.66150000      -1.50640000      -3.05960000
H        0.13270000      -0.21140000       2.16100000
H        0.78470000      -2.66370000       2.28730000
H        1.04820000      -2.67710000       0.46520000
H        3.33050000       0.20090000       0.56430000
