23
Properties=species:S:1:pos:R:3 gdb_108511=T pbc="F F F"
C       -0.01130000       1.40580000       0.32780000
O       -0.00610000       0.00680000       0.14650000
C       -1.27680000      -0.55850000      -0.09530000
C       -2.24380000      -0.58430000       1.13020000
C       -2.31670000      -2.13450000       1.03060000
C       -1.25170000      -2.12270000      -0.10620000
C       -1.73320000      -2.56270000      -1.49240000
C       -2.62730000      -1.39640000      -1.96270000
C       -1.89920000      -0.14010000      -1.44540000
H        1.01410000       1.70250000       0.56260000
H       -0.33300000       1.94290000      -0.57630000
H       -0.66350000       1.71140000       1.15970000
H       -1.75080000      -0.23670000       2.04110000
H       -3.18910000      -0.04620000       1.01530000
H       -2.02060000      -2.67000000       1.93480000
H       -3.29130000      -2.51770000       0.71560000
H       -0.29040000      -2.54850000       0.18460000
H       -0.87620000      -2.66890000      -2.16860000
H       -2.25770000      -3.52380000      -1.47720000
H       -2.77700000      -1.38060000      -3.04590000
H       -3.62180000      -1.47300000      -1.50690000
H       -2.55520000       0.73300000      -1.37400000
H       -1.07470000       0.11390000      -2.12220000
