19
Properties=species:S:1:pos:R:3 gdb_6438=T pbc="F F F"
C        0.02540000       1.66110000       0.03260000
C        0.03280000       0.14160000       0.01510000
C        1.04370000      -0.59140000      -0.90830000
C        1.29810000      -1.64170000       0.22980000
C        2.74550000      -2.06310000       0.49550000
C        0.64460000      -0.61790000       1.22370000
C        0.45050000      -2.82050000       0.05650000
N       -0.21810000      -3.75460000      -0.08010000
H        1.02890000       2.05790000       0.22540000
H       -0.31570000       2.06740000      -0.92590000
H       -0.64100000       2.04570000       0.81240000
H       -0.97690000      -0.23530000      -0.17860000
H        0.68830000      -0.97060000      -1.86790000
H        1.94920000       0.00180000      -1.07140000
H        3.37080000      -1.17480000       0.62370000
H        2.81880000      -2.67070000       1.40260000
H        3.14470000      -2.64900000      -0.33790000
H        1.42720000      -0.03290000       1.71740000
H       -0.03210000      -1.01840000       1.98040000
