12
Properties=species:S:1:pos:R:3 gdb_49964=T pbc="F F F"
O       -0.36610000       0.55000000       0.57440000
C        0.30550000       0.83170000      -0.38270000
C        1.45010000       1.80790000      -0.26290000
O        2.43550000       1.78150000      -1.27970000
C        1.63340000       2.94990000      -1.22960000
C        0.66060000       3.16650000      -2.38200000
O        0.21250000       2.26310000      -3.02970000
C        2.27970000       4.15500000      -0.74550000
N        2.75630000       5.14580000      -0.39020000
H        0.15990000       0.40080000      -1.38820000
H        1.80790000       1.97310000       0.75290000
H        0.40470000       4.22830000      -2.56640000
