23
Properties=species:S:1:pos:R:3 gdb_59246=T pbc="F F F"
C        0.08300000       1.25210000       0.72930000
C        0.13010000      -0.12820000       0.05550000
C        1.10510000      -1.06610000       0.78240000
C       -1.25930000      -0.73820000       0.00190000
C       -2.31040000      -0.40990000      -1.03110000
C       -1.89640000       0.21480000      -2.36720000
C       -1.01810000      -0.84160000      -3.00620000
C       -0.93710000      -1.94350000      -2.25550000
C       -1.70400000      -1.81170000      -0.98410000
H        1.07370000       1.71900000       0.74160000
H       -0.60360000       1.92780000       0.20950000
H       -0.25660000       1.16980000       1.76890000
H        0.49620000       0.00500000      -0.96840000
H        1.16990000      -2.03570000       0.27900000
H        2.11180000      -0.63650000       0.82320000
H        0.77990000      -1.24700000       1.81420000
H       -1.68050000      -0.88720000       0.99640000
H       -3.32130000      -0.23390000      -0.68130000
H       -2.77410000       0.43650000      -2.98880000
H       -1.36470000       1.16810000      -2.24390000
H       -0.50460000      -0.68210000      -3.94790000
H       -0.36980000      -2.83230000      -2.50850000
H       -2.24810000      -2.66740000      -0.59730000
