17
Properties=species:S:1:pos:R:3 gdb_36390=T pbc="F F F"
N        0.04090000      -1.02430000      -0.86540000
C        0.01040000       0.01820000      -0.36860000
C       -0.01080000       1.33850000       0.26470000
C        1.36440000       1.99220000       0.25460000
C        1.83510000       2.79360000      -0.93280000
C        1.55810000       3.48660000       0.37740000
C        0.39330000       4.45690000       0.52100000
C        0.76130000       5.81270000       0.10770000
N        1.06510000       6.87930000      -0.21590000
H       -0.74890000       1.95160000      -0.26300000
H       -0.37660000       1.21980000       1.29190000
H        2.11810000       1.39200000       0.75490000
H        2.86100000       2.68790000      -1.26450000
H        1.12440000       2.95200000      -1.73850000
H        2.42860000       3.78800000       0.95180000
H       -0.46480000       4.14360000      -0.08270000
H        0.04830000       4.49780000       1.56140000
