19
Properties=species:S:1:pos:R:3 gdb_30056=T pbc="F F F"
C       -0.53880000       1.44750000      -0.13880000
N       -0.16580000       0.04840000      -0.07090000
C       -0.12290000      -0.81250000      -1.13790000
C        0.22420000      -2.06170000      -0.67800000
C        0.39370000      -1.95540000       0.72670000
C        0.14760000      -0.64360000       1.08480000
C        0.17660000       0.03230000       2.39510000
C        1.01700000      -0.49370000       3.49550000
N        1.39570000       0.77080000       2.84250000
H        0.09140000       2.03980000       0.52890000
H       -0.39900000       1.80620000      -1.16040000
H       -1.58690000       1.60280000       0.14360000
H       -0.34000000      -0.45810000      -2.13360000
H        0.34620000      -2.94730000      -1.28230000
H        0.65420000      -2.74970000       1.40950000
H       -0.73250000       0.56030000       2.67890000
H        0.67700000      -0.39590000       4.52230000
H        1.61770000      -1.37670000       3.29880000
H        2.14150000       0.57420000       2.17730000
