23
Properties=species:S:1:pos:R:3 gdb_58248=T pbc="F F F"
C        0.05990000       1.38560000       0.43700000
C        0.02540000      -0.03660000      -0.14340000
C       -1.38050000      -0.63960000      -0.03160000
C        0.51940000      -0.10040000      -1.60650000
O       -0.26950000       0.68420000      -2.49810000
C        1.98110000       0.28810000      -1.74780000
O        2.94730000      -0.51010000      -1.05790000
C        2.99290000      -0.47870000      -2.49310000
C        2.74200000      -1.77010000      -3.22670000
H        1.06410000       1.82000000       0.41570000
H       -0.61880000       2.05740000      -0.10350000
H       -0.27080000       1.37830000       1.47990000
H        0.72480000      -0.65630000       0.43180000
H       -2.08590000      -0.08810000      -0.66100000
H       -1.39160000      -1.68540000      -0.35660000
H       -1.74290000      -0.60540000       1.00080000
H        0.38600000      -1.12930000      -1.95310000
H       -0.18500000       1.60730000      -2.23580000
H        2.15580000       1.36480000      -1.65630000
H        3.83780000       0.09570000      -2.87990000
H        1.91760000      -2.33540000      -2.78810000
H        2.51050000      -1.57130000      -4.27850000
H        3.63680000      -2.40020000      -3.19220000
