17
Properties=species:S:1:pos:R:3 gdb_116671=T pbc="F F F"
C       -0.49640000       0.82260000       0.03580000
O        0.73750000       0.13720000      -0.18460000
C        0.70330000      -0.83640000      -1.10140000
N        1.75290000      -1.49350000      -1.35580000
C        1.72510000      -2.56730000      -2.33470000
C        2.31640000      -3.83360000      -1.66830000
O        1.58610000      -4.21660000      -0.53110000
C        0.39790000      -2.85000000      -2.91760000
N       -0.65360000      -3.02710000      -3.36410000
H       -0.84360000       1.31750000      -0.87780000
H       -1.27100000       0.13810000       0.39870000
H       -0.29280000       1.57450000       0.79820000
H       -0.27090000      -0.99280000      -1.58230000
H        2.39210000      -2.29270000      -3.16370000
H        2.28420000      -4.67120000      -2.37040000
H        3.36640000      -3.60970000      -1.43280000
H        1.64910000      -3.48790000       0.09770000
