18
Properties=species:S:1:pos:R:3 gdb_83464=T pbc="F F F"
C        0.04150000       1.66180000       0.42130000
C        0.01370000       0.15030000       0.41090000
C        1.10050000      -0.70780000      -0.19170000
O        2.38970000      -0.11110000      -0.01980000
C        2.28270000      -0.23970000       1.42450000
C        0.85300000      -0.75670000       1.29270000
O        0.34490000      -1.79080000       2.06660000
C       -0.50270000      -1.44120000       3.06830000
N       -0.95290000      -2.32990000       3.83850000
H        1.06990000       2.03090000       0.41550000
H       -0.45440000       2.05800000      -0.47070000
H       -0.47070000       2.07160000       1.29830000
H       -0.96330000      -0.30100000       0.24150000
H        0.97060000      -1.42960000      -0.98890000
H        2.96670000      -1.00990000       1.79600000
H        2.45490000       0.70750000       1.94760000
H       -0.71890000      -0.36610000       3.09320000
H       -1.57600000      -1.91180000       4.52630000
