14
Properties=species:S:1:pos:R:3 gdb_17166=T pbc="F F F"
O        0.04220000      -0.03730000       0.04090000
C        0.08810000       1.16420000      -0.00200000
C        1.33970000       1.96160000      -0.00340000
O        2.64180000       1.33240000       0.04700000
C        2.92800000       2.76150000       0.00220000
C        1.78020000       3.10800000      -0.99640000
C        1.22860000       4.22480000      -0.08650000
C        1.73900000       3.17650000       0.92350000
H       -0.83190000       1.79120000      -0.04250000
H        3.96740000       3.08570000       0.01290000
H        1.81040000       3.02700000      -2.08230000
H        1.76800000       5.17530000      -0.10880000
H        0.15090000       4.40150000      -0.11590000
H        1.72250000       3.17300000       2.01270000
