17
Properties=species:S:1:pos:R:3 gdb_14673=T pbc="F F F"
C        0.09410000       0.84400000       0.37000000
C       -0.58160000       0.00220000      -0.72780000
C       -1.96080000      -0.35330000      -0.41290000
C       -3.09760000      -0.63140000      -0.12760000
C       -4.46950000      -0.99090000       0.21240000
O       -4.57350000      -2.21080000       0.95850000
C       -4.32160000      -3.34430000       0.27000000
N       -4.36850000      -4.45850000       0.85940000
H        1.12370000       1.08090000       0.08670000
H       -0.44490000       1.78190000       0.52770000
H        0.11250000       0.30130000       1.31860000
H       -0.55910000       0.54800000      -1.67980000
H       -0.00550000      -0.91670000      -0.89540000
H       -4.92030000      -0.23280000       0.85890000
H       -5.08640000      -1.05500000      -0.69500000
H       -4.09340000      -3.17370000      -0.79050000
H       -4.16950000      -5.20760000       0.19960000
