17
Properties=species:S:1:pos:R:3 gdb_34637=T pbc="F F F"
C        0.06450000      -1.21060000      -0.07200000
C       -0.01290000      -0.00960000      -0.01250000
C       -0.04750000       1.41080000       0.04940000
C       -1.18990000       2.11460000       0.02190000
C       -1.17390000       3.61650000       0.11580000
O       -0.06480000       4.11920000       0.84810000
C        1.17700000       3.60510000       0.45960000
C        1.83370000       2.64570000       1.41480000
C        1.25150000       2.14820000       0.10100000
H        0.11700000      -2.26990000      -0.12130000
H       -2.15060000       1.61780000      -0.06290000
H       -1.20690000       4.05820000      -0.89610000
H       -2.06210000       3.97390000       0.64670000
H        1.79460000       4.31520000      -0.08730000
H        2.91300000       2.66380000       1.51940000
H        1.27950000       2.42570000       2.31980000
H        1.96800000       1.85470000      -0.66010000
