21
Properties=species:S:1:pos:R:3 gdb_40890=T pbc="F F F"
C        0.01450000       1.51160000      -0.15750000
C        1.54350000       1.54290000       0.14110000
C        1.42340000       0.10880000       0.67360000
C        0.00710000      -0.02520000       0.09430000
C        2.45130000      -0.97550000       0.77770000
C        3.92870000      -0.57640000       0.77580000
C        4.07080000       0.27890000       2.01840000
C        2.93380000       0.34420000       2.71680000
C        1.82750000      -0.39460000       2.04700000
H       -0.56630000       2.05900000       0.58890000
H       -0.29730000       1.84460000      -1.14970000
H        2.14970000       1.60700000      -0.76930000
H        1.89940000       2.30070000       0.84280000
H       -0.76540000      -0.41170000       0.76580000
H       -0.02040000      -0.60800000      -0.83270000
H        2.17520000      -1.96420000       0.42610000
H        4.58590000      -1.45550000       0.81470000
H        4.20910000      -0.02570000      -0.13280000
H        4.99520000       0.78470000       2.27400000
H        2.79860000       0.89240000       3.64260000
H        1.08820000      -0.93250000       2.63310000
