19
Properties=species:S:1:pos:R:3 gdb_88230=T pbc="F F F"
C       -1.23820000       0.35710000       0.46600000
C        0.05340000      -0.26410000       0.00010000
N        1.12540000       0.65030000      -0.40120000
C        1.31850000      -0.19820000       0.80530000
C        1.39600000       0.46310000       2.07790000
C        1.47230000       0.98660000       3.16270000
C        1.54520000       1.64160000       4.43760000
C        2.87540000       2.02140000       5.00440000
N        1.96810000       3.06320000       4.51730000
H       -1.04010000       1.23920000       1.07820000
H       -1.84760000       0.66140000      -0.39130000
H       -1.81810000      -0.35680000       1.06050000
H       -0.06000000      -1.17760000      -0.58330000
H        1.66300000       0.25960000      -1.17100000
H        1.98670000      -1.05100000       0.69910000
H        0.74780000       1.39900000       5.13570000
H        3.01500000       2.00060000       6.08160000
H        3.75490000       1.77030000       4.41910000
H        2.26090000       3.36560000       3.59100000
