23
Properties=species:S:1:pos:R:3 gdb_120987=T pbc="F F F"
C        0.14680000       1.37110000      -0.08080000
O        0.11600000      -0.03320000      -0.02650000
C        0.66350000      -0.55240000       1.16920000
C        0.61480000      -2.06460000       1.09330000
C        1.56490000      -2.80900000       0.10710000
C        1.92980000      -3.82870000       1.22630000
C        3.26520000      -3.54740000       1.95250000
C        2.54240000      -2.51620000       2.87190000
C        1.16460000      -2.92390000       2.26130000
H        1.17580000       1.76220000      -0.02710000
H       -0.29510000       1.67360000      -1.03360000
H       -0.43230000       1.82670000       0.73900000
H        1.70000000      -0.19460000       1.29280000
H        0.09210000      -0.19120000       2.04350000
H       -0.42290000      -2.35170000       0.89300000
H        1.07770000      -3.22640000      -0.77630000
H        2.41630000      -2.20870000      -0.23100000
H        1.66140000      -4.86830000       1.03310000
H        3.63650000      -4.41200000       2.50990000
H        4.08140000      -3.16900000       1.32900000
H        2.63150000      -2.72900000       3.93980000
H        2.83260000      -1.47360000       2.71940000
H        0.43440000      -3.31040000       2.97470000
