20
Properties=species:S:1:pos:R:3 gdb_22319=T pbc="F F F"
C       -0.76070000       0.91560000       0.78240000
C        0.04280000      -0.25710000       0.28160000
O        1.21400000       0.03260000      -0.49020000
C        1.38490000      -0.64520000       0.75670000
C        2.19110000       0.07270000       1.82460000
C        2.12400000      -0.62810000       3.15890000
C        0.83610000      -0.65580000       3.93800000
N        3.20650000      -1.18610000       3.54950000
O        3.04180000      -1.83330000       4.78470000
H       -0.12940000       1.68720000       1.22760000
H       -1.31040000       1.37180000      -0.04770000
H       -1.49540000       0.58740000       1.52590000
H       -0.56410000      -1.06020000      -0.14360000
H        1.65810000      -1.69760000       0.64880000
H        3.23640000       0.10460000       1.50300000
H        1.84330000       1.10640000       1.92330000
H        0.38800000      -1.65570000       3.90820000
H        1.02640000      -0.43150000       4.99090000
H        0.11370000       0.05770000       3.53800000
H        3.92940000      -2.16380000       4.95830000
