11
Properties=species:S:1:pos:R:3 gdb_8729=T pbc="F F F"
O        0.11490000       1.44810000      -0.15370000
C        0.02840000       0.06570000      -0.03680000
C        0.63900000      -0.63410000      -1.18750000
N        1.11610000      -1.18370000      -2.08440000
C        0.72480000      -0.40360000       1.26990000
O        1.28470000       0.42470000       1.95230000
C        0.63890000      -1.79910000       1.59050000
C        0.53520000      -2.97460000       1.82560000
H        0.73250000       1.73060000       0.54310000
H       -1.02430000      -0.25050000       0.02020000
H        0.45590000      -4.01350000       2.04140000
