15
Properties=species:S:1:pos:R:3 gdb_7762=T pbc="F F F"
O        0.08200000       1.44860000       0.10790000
C        0.09550000       0.02820000       0.04200000
C       -1.33130000      -0.54790000       0.10340000
C       -1.45450000      -2.02620000      -0.24990000
O       -2.29860000      -2.76600000       0.20750000
N       -0.56190000      -2.45020000      -1.21530000
C        0.48410000      -1.66780000      -1.71180000
C        0.81780000      -0.49310000      -1.17360000
H       -0.30800000       1.77180000      -0.71260000
H        0.64400000      -0.27070000       0.94670000
H       -1.79120000      -0.38620000       1.07880000
H       -1.94470000      -0.01350000      -0.63770000
H       -0.67700000      -3.40220000      -1.52790000
H        1.01050000      -2.10210000      -2.55380000
H        1.64990000       0.07910000      -1.56480000
