18
Properties=species:S:1:pos:R:3 gdb_50011=T pbc="F F F"
O        0.11720000       0.20400000      -0.59040000
C        0.06560000       1.32300000      -0.13970000
N        1.08420000       1.94780000       0.55340000
C        2.48770000       1.83180000       0.22690000
C        1.80000000       3.16350000       0.18100000
C        1.48960000       3.88200000      -1.14370000
C        1.07980000       5.26010000      -0.68240000
C        1.33250000       5.45460000       0.61140000
C        1.95540000       4.24320000       1.26160000
H       -0.84840000       1.94700000      -0.17270000
H        3.15080000       1.59470000       1.05530000
H        2.73360000       1.34430000      -0.71420000
H        2.38120000       3.92880000      -1.78440000
H        0.71810000       3.36890000      -1.72860000
H        0.65950000       5.99570000      -1.35830000
H        1.14660000       6.37420000       1.15430000
H        1.46460000       3.93870000       2.19170000
H        3.01290000       4.42110000       1.50190000
