16
Properties=species:S:1:pos:R:3 gdb_126732=T pbc="F F F"
C       -0.27240000       1.48500000       0.05670000
C        0.11580000       0.01130000      -0.05270000
N        0.72940000      -0.49380000       1.17090000
C        0.17700000      -1.31290000       2.10380000
C        1.11130000      -1.47550000       3.10120000
C        2.21110000      -0.69910000       2.66960000
N        1.96630000      -0.10450000       1.49300000
C        3.45640000      -0.52310000       3.33450000
N        4.45550000      -0.40320000       3.90610000
H        0.60880000       2.09210000       0.27570000
H       -0.70590000       1.82600000      -0.88780000
H       -1.00820000       1.63990000       0.85110000
H       -0.75710000      -0.61550000      -0.25350000
H        0.83350000      -0.14000000      -0.86320000
H       -0.81770000      -1.71140000       1.98310000
H        1.02930000      -2.06320000       3.99970000
