16
Properties=species:S:1:pos:R:3 gdb_29027=T pbc="F F F"
C       -0.21480000       1.53650000       0.03510000
C       -0.14420000       0.03930000      -0.00350000
C       -0.03150000      -0.61190000      -1.19230000
C        0.05340000      -2.01150000      -1.50370000
N        0.04970000      -3.07410000      -0.76140000
C       -0.04610000      -3.05650000       0.60300000
C       -0.15520000      -2.04330000       1.50230000
C       -0.20970000      -0.59300000       1.34190000
O       -0.31130000       0.12630000       2.33100000
H        0.59710000       1.93340000       0.65380000
H       -0.16510000       1.97440000      -0.96350000
H       -1.13670000       1.85480000       0.53310000
H        0.00210000       0.01850000      -2.07910000
H        0.13700000      -2.21560000      -2.57360000
H       -0.02970000      -4.06080000       1.02390000
H       -0.21520000      -2.33140000       2.54890000
