17
Properties=species:S:1:pos:R:3 gdb_39772=T pbc="F F F"
C        0.00130000       1.49970000       0.00960000
C        1.36540000       0.82970000      -0.00800000
C        0.12650000       0.01200000       0.00110000
C       -0.51400000      -0.97200000       0.98290000
O       -1.61850000      -1.11370000       0.01400000
C       -0.53470000      -0.96250000      -0.97650000
C        0.23310000      -2.29250000      -0.74240000
O        1.46800000      -2.15800000      -0.02350000
C        0.24860000      -2.29960000       0.71980000
H       -0.32210000       1.98260000       0.92610000
H       -0.34140000       1.99140000      -0.89520000
H        1.94540000       0.86610000      -0.92400000
H        1.96460000       0.85730000       0.89580000
H       -0.83300000      -0.72280000       1.99410000
H       -0.87490000      -0.70360000      -1.97820000
H        0.12470000      -3.16210000      -1.38030000
H        0.15340000      -3.17530000       1.35150000
