19
Properties=species:S:1:pos:R:3 gdb_68609=T pbc="F F F"
O       -0.12160000       1.37740000       0.04100000
C       -0.01590000      -0.00470000      -0.00400000
C        0.30610000      -0.82460000      -1.30560000
C       -0.41900000      -1.96420000      -0.52360000
C        0.54380000      -2.20960000       0.65940000
C        0.84600000      -0.72530000       1.05580000
C       -1.30300000      -0.84120000       0.04130000
C       -2.52280000      -0.76960000       0.83350000
O       -2.49980000      -0.42230000      -0.57060000
H        0.76090000       1.75100000       0.13540000
H       -0.26970000      -0.46550000      -2.15940000
H        1.35630000      -0.97940000      -1.57060000
H       -0.85270000      -2.82410000      -1.02970000
H        0.07320000      -2.77030000       1.47150000
H        1.44170000      -2.75140000       0.35000000
H        1.90640000      -0.46730000       0.96020000
H        0.52550000      -0.47800000       2.07180000
H       -3.07640000      -1.67600000       1.07540000
H       -2.68200000       0.07010000       1.50830000
