25
Properties=species:S:1:pos:R:3 gdb_101232=T pbc="F F F"
C        0.03210000       1.50310000       0.19540000
C        0.09010000      -0.01390000      -0.00820000
C        0.79200000      -0.47270000      -1.30410000
C        2.27040000      -0.06430000      -1.33830000
C        0.59110000      -1.98020000      -1.47210000
C        1.23370000      -2.76420000      -2.63710000
C        1.76700000      -3.69450000      -1.52540000
C        3.25050000      -3.98920000      -1.45190000
O        1.32590000      -2.76920000      -0.50060000
H        1.02660000       1.94150000       0.32100000
H       -0.44500000       2.00000000      -0.65740000
H       -0.54810000       1.75200000       1.08970000
H        0.59070000      -0.48680000       0.84580000
H       -0.93480000      -0.40720000      -0.01370000
H        0.27480000      -0.00110000      -2.15480000
H        2.74780000      -0.34030000      -2.28340000
H        2.38430000       1.01690000      -1.22710000
H        2.81820000      -0.55350000      -0.52770000
H       -0.48520000      -2.19870000      -1.38960000
H        0.54940000      -3.20210000      -3.36550000
H        2.02390000      -2.22480000      -3.16340000
H        1.19430000      -4.63140000      -1.45500000
H        3.83700000      -3.07130000      -1.55460000
H        3.50100000      -4.45180000      -0.49180000
H        3.54130000      -4.68150000      -2.24980000
