16
Properties=species:S:1:pos:R:3 gdb_6319=T pbc="F F F"
C        0.15000000       1.53980000      -0.16630000
C       -0.05140000       0.03790000       0.02900000
N       -1.44650000      -0.37660000       0.03590000
C       -2.07260000      -0.68330000       1.23320000
N       -3.44680000      -0.82560000       1.12510000
O       -1.47660000      -0.79910000       2.28690000
C        0.70600000      -0.79970000      -0.99510000
O        1.56320000      -0.38030000      -1.72770000
H        1.21600000       1.77310000      -0.20950000
H       -0.29570000       1.87660000      -1.10840000
H       -0.30640000       2.09420000       0.65700000
H        0.32890000      -0.26520000       1.01490000
H       -2.02540000      -0.01010000      -0.70520000
H       -3.82290000      -1.15110000       0.24740000
H       -3.85890000      -1.25830000       1.93760000
H        0.38930000      -1.86730000      -1.00970000
