17
Properties=species:S:1:pos:R:3 gdb_127688=T pbc="F F F"
C       -0.03540000       1.45100000      -0.03170000
N       -0.00820000      -0.00030000       0.05610000
N       -0.03530000      -0.62530000      -1.15760000
N       -0.01690000      -1.87890000      -1.23910000
C        0.03300000      -2.72340000      -0.08160000
N        0.05060000      -3.99730000      -0.20450000
C        0.06120000      -2.04850000       1.19520000
C        0.04040000      -0.70070000       1.25080000
C        0.06670000       0.08450000       2.52840000
H        0.86170000       1.89470000       0.41140000
H       -0.07200000       1.69870000      -1.09180000
H       -0.91810000       1.86470000       0.46580000
H        0.02370000      -4.22930000      -1.20020000
H        0.09900000      -2.64160000       2.09980000
H        0.10430000      -0.60130000       3.37610000
H        0.94040000       0.74310000       2.58090000
H       -0.82370000       0.71360000       2.63540000
