19
Properties=species:S:1:pos:R:3 gdb_23606=T pbc="F F F"
O       -0.05730000       1.31260000      -0.01310000
N        0.04150000      -0.09090000       0.04010000
C       -1.09910000      -0.62690000      -0.04030000
C       -2.53360000      -0.18660000      -0.22320000
N       -2.87710000      -1.61060000      -0.50180000
C       -1.52480000      -2.08640000      -0.06000000
C       -0.83770000      -3.04190000      -0.99480000
C        0.33960000      -3.84860000      -0.50890000
C       -0.97490000      -4.53090000      -0.78700000
H        0.86580000       1.58290000       0.03900000
H       -2.96870000       0.24110000       0.69110000
H       -2.73310000       0.49870000      -1.05400000
H       -3.64400000      -1.97070000       0.05440000
H       -1.52310000      -2.50780000       0.95880000
H       -0.80530000      -2.69520000      -2.02280000
H        1.16370000      -4.00910000      -1.19430000
H        0.64310000      -3.72910000       0.52590000
H       -1.55850000      -4.87460000       0.06130000
H       -1.05630000      -5.16240000      -1.66430000
