8
Properties=species:S:1:pos:R:3 gdb_169=T pbc="F F F"
N        0.01510000       1.26110000       0.00930000
N        1.22020000       1.81320000       0.00030000
C        2.03200000       0.75440000      -0.01350000
C        1.25040000      -0.41180000      -0.01230000
N       -0.03750000      -0.06350000       0.00240000
H       -0.82150000       1.82170000       0.02070000
H        3.10290000       0.87670000      -0.02340000
H        1.54440000      -1.44880000      -0.02090000
