19
Properties=species:S:1:pos:R:3 gdb_99627=T pbc="F F F"
C        0.57150000       1.45990000      -0.43550000
C       -0.07530000       0.19410000       0.07850000
C        0.72060000      -1.03640000       0.33200000
N        0.13180000      -0.29350000       1.45140000
C        0.96610000       0.45350000       2.40630000
C        0.65680000      -0.11030000       3.81300000
O        0.84940000      -1.50020000       3.86740000
C        2.41220000       0.41170000       2.13290000
N        3.54300000       0.37700000       1.89360000
H        1.62810000       1.52580000      -0.16590000
H        0.50290000       1.48990000      -1.52760000
H        0.05900000       2.34970000      -0.05220000
H       -1.10840000       0.06570000      -0.24180000
H        0.29740000      -2.02200000       0.15790000
H        1.79660000      -0.97090000       0.18830000
H        0.66130000       1.50760000       2.39080000
H        1.32180000       0.34100000       4.55510000
H       -0.37880000       0.17340000       4.05140000
H        0.25360000      -1.87630000       3.20770000
