22
Properties=species:S:1:pos:R:3 gdb_61164=T pbc="F F F"
C       -0.01570000       1.52930000      -0.01020000
C        0.00300000      -0.01040000       0.06040000
C        0.71580000      -0.44880000       1.35330000
C       -1.44860000      -0.52590000       0.06570000
C        0.75410000      -0.52300000      -1.20510000
O        2.07420000      -0.01480000      -1.29710000
C        0.76030000      -2.06420000      -1.35610000
C        1.42610000      -2.49520000      -2.58310000
N        1.94060000      -2.84830000      -3.55530000
H        0.99720000       1.92890000      -0.09300000
H       -0.58460000       1.87460000      -0.88060000
H       -0.48640000       1.94920000       0.88460000
H        0.19340000      -0.04600000       2.22650000
H        0.74240000      -1.53760000       1.46950000
H        1.74340000      -0.07200000       1.39550000
H       -1.94790000      -0.32100000      -0.88820000
H       -1.51160000      -1.60170000       0.25820000
H       -2.02360000      -0.02440000       0.85070000
H        0.24140000      -0.10830000      -2.08070000
H        2.61170000      -0.42070000      -0.60840000
H        1.27070000      -2.52830000      -0.50350000
H       -0.26110000      -2.45530000      -1.36360000
