17
Properties=species:S:1:pos:R:3 gdb_11117=T pbc="F F F"
C       -0.60070000       1.50480000      -0.07190000
O       -0.22960000       0.24520000       0.44900000
C       -1.07620000      -0.79290000       0.05430000
C       -0.90230000      -1.40300000      -1.36890000
C       -1.00050000      -2.82560000      -0.71990000
C       -0.71270000      -2.15830000       0.66790000
C       -2.32110000      -3.42740000      -0.82260000
N       -3.37460000      -3.89810000      -0.90260000
H        0.10470000       2.23880000       0.32360000
H       -0.55430000       1.52610000      -1.17080000
H       -1.61930000       1.78480000       0.23700000
H       -2.12900000      -0.53090000       0.24020000
H       -1.63130000      -1.15670000      -2.14140000
H        0.11010000      -1.22680000      -1.74040000
H       -0.25790000      -3.55100000      -1.05780000
H        0.35520000      -2.19660000       0.89290000
H       -1.28500000      -2.50850000       1.52680000
