19
Properties=species:S:1:pos:R:3 gdb_91827=T pbc="F F F"
C        0.20960000       1.57770000       0.10430000
C        0.09680000       0.06840000      -0.00150000
C        0.74930000      -0.56780000      -1.24740000
C        1.20990000      -1.94340000      -0.73860000
C        2.49290000      -1.94990000       0.09760000
C        1.16670000      -1.82150000       0.77840000
O        0.76780000      -0.52820000       1.12480000
C        0.80630000      -3.13050000      -1.42640000
C        0.46540000      -4.12480000      -2.01250000
H        1.25900000       1.88710000       0.07620000
H       -0.31900000       2.05750000      -0.72540000
H       -0.22880000       1.93180000       1.04140000
H       -0.96420000      -0.22690000       0.03290000
H        0.03940000      -0.66860000      -2.07060000
H        1.59470000       0.03320000      -1.60000000
H        3.01650000      -2.89640000       0.17170000
H        3.11990000      -1.06550000       0.05680000
H        0.77550000      -2.61670000       1.40510000
H        0.16600000      -5.00350000      -2.52720000
