19
Properties=species:S:1:pos:R:3 gdb_108779=T pbc="F F F"
O        0.06110000       1.42380000      -0.01770000
C        0.00180000       0.01670000       0.04180000
C       -1.42130000      -0.46520000       0.04280000
C       -2.46580000       0.37660000       0.08720000
C       -3.86760000      -0.08250000       0.05070000
O       -4.79870000       0.69650000       0.11850000
C       -4.08700000      -1.58370000      -0.11510000
C       -2.96140000      -2.40620000       0.52080000
C       -1.59600000      -1.96350000      -0.01750000
H        0.98180000       1.69150000       0.04690000
H        0.52500000      -0.45070000      -0.81240000
H        0.49620000      -0.37380000       0.94980000
H       -2.31250000       1.44810000       0.13660000
H       -5.07010000      -1.83330000       0.29200000
H       -4.12860000      -1.78620000      -1.19560000
H       -2.97850000      -2.26400000       1.60840000
H       -3.11320000      -3.47490000       0.33810000
H       -1.48060000      -2.29110000      -1.06230000
H       -0.78560000      -2.45540000       0.53560000
