18
Properties=species:S:1:pos:R:3 gdb_13960=T pbc="F F F"
O       -0.64590000       0.59570000       0.54940000
C        0.18620000       0.90230000      -0.26450000
C        1.27470000       1.93690000      -0.04790000
C        1.25910000       2.99380000      -1.12330000
C        1.90050000       2.80320000      -2.47480000
C        2.36660000       3.93900000      -1.60560000
C        1.37080000       5.10100000      -1.68610000
C        0.23500000       4.13950000      -1.20430000
H        0.20370000       0.43160000      -1.27500000
H        1.14880000       2.36600000       0.95160000
H        2.23840000       1.40760000      -0.07380000
H        2.58760000       1.96560000      -2.55040000
H        1.34260000       3.00180000      -3.38780000
H        3.39400000       4.00750000      -1.26720000
H        1.57300000       5.89450000      -0.96370000
H        1.24780000       5.55420000      -2.67520000
H       -0.60980000       3.98470000      -1.88340000
H       -0.15720000       4.42300000      -0.22450000
