18
Properties=species:S:1:pos:R:3 gdb_30322=T pbc="F F F"
C       -0.08130000       1.50930000       0.01960000
N        0.08910000       0.06680000       0.04840000
C        0.69400000      -0.55160000      -1.16550000
C        1.37860000      -1.88340000      -0.70040000
C        1.56970000      -1.59760000       0.76510000
C        0.82570000      -0.50970000       1.07140000
O        0.81480000      -0.21620000       2.37860000
C        1.61020000      -1.19800000       2.96190000
C        2.07750000      -2.06620000       2.02040000
H        0.86050000       2.04610000      -0.18970000
H       -0.80920000       1.77620000      -0.75190000
H       -0.46690000       1.84740000       0.98420000
H       -0.06930000      -0.70630000      -1.93240000
H        1.45640000       0.13100000      -1.57320000
H        0.71480000      -2.74180000      -0.86910000
H        2.29490000      -2.06990000      -1.26910000
H        1.74830000      -1.09810000       4.02430000
H        2.71580000      -2.91430000       2.21690000
