22
Properties=species:S:1:pos:R:3 gdb_58818=T pbc="F F F"
C       -0.05540000       1.58090000       0.23950000
C       -0.04630000       0.05660000       0.03230000
C        0.88150000      -0.63330000       1.03950000
C       -1.45670000      -0.48590000       0.05130000
C       -2.23380000      -0.92790000       1.26330000
C       -2.01960000      -1.88690000       0.11800000
N       -2.85870000      -1.70950000      -1.13370000
C       -3.82260000      -0.60640000      -0.95460000
C       -2.39680000      -0.27780000      -1.16350000
H        0.95290000       1.99690000       0.14360000
H       -0.69590000       2.08090000      -0.49450000
H       -0.43240000       1.83340000       1.23690000
H        0.35500000      -0.14110000      -0.97310000
H        0.87980000      -1.72030000       0.90990000
H        1.91040000      -0.28290000       0.91100000
H        0.58820000      -0.41240000       2.07160000
H       -1.61300000      -1.17490000       2.11910000
H       -3.19500000      -0.51320000       1.54570000
H       -1.53660000      -2.84790000       0.24600000
H       -4.47480000      -0.50190000      -1.81760000
H       -4.32390000      -0.44930000      -0.00680000
H       -2.03110000       0.15720000      -2.08980000
