19
Properties=species:S:1:pos:R:3 gdb_101939=T pbc="F F F"
N        0.03130000       1.00550000       0.14780000
H        0.19160000       0.00300000       0.18310000
H        0.94150000       1.45290000       0.13290000
H       -1.24310000       1.49280000      -0.96840000
C       -0.75780000       1.44840000       1.31370000
C       -2.24570000       1.07410000       1.13970000
C       -3.02960000       1.35060000       2.40370000
C       -4.16370000       0.49240000       2.79850000
N       -2.90330000       0.45400000       3.56940000
C       -2.90310000       1.77400000      -0.07240000
O       -4.02300000       2.21220000      -0.03520000
O       -2.15000000       1.84100000      -1.17590000
H       -0.39190000       1.03140000       2.26120000
H       -0.66280000       2.53730000       1.38540000
H       -2.29300000      -0.00750000       0.93300000
H       -3.07610000       2.40270000       2.67550000
H       -5.01110000       0.92220000       3.32300000
H       -4.41010000      -0.34960000       2.15690000
H       -2.37670000      -0.37830000       3.31020000
