24
Properties=species:S:1:pos:R:3 gdb_60130=T pbc="F F F"
C        4.21420000      -5.18540000      -0.89480000
C        2.69400000      -5.04940000      -0.99000000
O        2.08460000      -6.30040000      -1.30260000
C        2.08560000      -4.41870000       0.27370000
C        0.60840000      -4.11640000       0.11030000
C       -0.48560000      -5.05540000       0.50600000
C       -0.23920000      -6.41980000       1.11280000
N       -0.28930000      -3.79170000       1.22430000
C        0.19970000      -3.78020000       2.59370000
H        4.60810000      -5.65920000      -1.79790000
H        4.69560000      -4.20960000      -0.77470000
H        4.49690000      -5.80370000      -0.03310000
H        2.44920000      -4.41220000      -1.84950000
H        2.32400000      -6.92200000      -0.60620000
H        2.28110000      -5.08230000       1.12350000
H        2.62070000      -3.48340000       0.48840000
H        0.42020000      -3.49060000      -0.76440000
H       -1.38280000      -5.03920000      -0.11370000
H        0.65730000      -6.46580000       1.73470000
H       -1.08720000      -6.72430000       1.73620000
H       -0.12980000      -7.15720000       0.31140000
H        0.93570000      -4.55460000       2.85390000
H        0.65720000      -2.80580000       2.79580000
H       -0.65350000      -3.89230000       3.27110000
