14
Properties=species:S:1:pos:R:3 gdb_16144=T pbc="F F F"
O       -0.30020000       0.06130000       0.13030000
C       -0.08340000       1.23930000       0.01550000
C        1.25190000       1.85430000      -0.11800000
C        1.49600000       3.31430000       0.28280000
C        1.57920000       2.91700000      -1.15910000
O        2.81110000       2.55030000      -1.70400000
C        3.39390000       1.61120000      -0.81310000
O        2.34500000       0.98830000      -0.09210000
H       -0.90420000       1.99370000      -0.00050000
H        0.62000000       3.88290000       0.57810000
H        2.39610000       3.53970000       0.84260000
H        0.88110000       3.28100000      -1.90210000
H        3.93780000       0.85790000      -1.38990000
H        4.07930000       2.12240000      -0.11910000
