20
Properties=species:S:1:pos:R:3 gdb_45547=T pbc="F F F"
N       -0.05930000       1.02390000      -0.69090000
C       -0.05270000      -0.07270000      -0.06420000
C       -1.27530000      -0.88940000       0.30230000
C       -0.70000000      -2.26740000       0.63820000
C       -0.55970000      -3.25120000      -0.53980000
C        0.65890000      -4.10450000      -0.15440000
C        1.64490000      -3.08970000       0.46830000
C        0.76490000      -1.95460000       1.03550000
O        1.07360000      -0.69910000       0.39010000
H        0.89270000       1.37980000      -0.79510000
H       -1.75860000      -0.42990000       1.17160000
H       -2.00110000      -0.88840000      -0.51260000
H       -1.22980000      -2.75120000       1.46340000
H       -1.46690000      -3.83750000      -0.70950000
H       -0.35240000      -2.69620000      -1.46370000
H        0.36510000      -4.85130000       0.59300000
H        1.08960000      -4.64840000      -0.99930000
H        2.28510000      -3.53880000       1.23160000
H        2.29970000      -2.65810000      -0.29400000
H        0.89930000      -1.80950000       2.11210000
