18
Properties=species:S:1:pos:R:3 gdb_45541=T pbc="F F F"
O        0.10490000       0.02640000      -0.28290000
C       -0.04860000       1.23280000      -0.10620000
C       -1.20300000       2.01740000       0.10690000
H       -2.22420000       1.78620000      -0.14990000
N       -0.82290000       3.42930000       0.10000000
H       -1.14160000       3.90020000      -0.75620000
C       -1.15970000       4.34370000       1.24700000
C       -0.16840000       5.50550000       1.07180000
C        1.12850000       4.83470000       0.52250000
C        0.67780000       3.46680000       0.09790000
C        1.11840000       2.22270000      -0.01560000
H       -2.21290000       4.62540000       1.20450000
H       -0.97780000       3.75460000       2.14810000
H       -0.55940000       6.23490000       0.35510000
H       -0.00300000       6.03590000       2.01080000
H        1.55880000       5.41840000      -0.29820000
H        1.89990000       4.75790000       1.29390000
H        2.15260000       1.90560000      -0.00370000
