17
Properties=species:S:1:pos:R:3 gdb_36129=T pbc="F F F"
C       -0.04140000      -1.19640000       0.30580000
C       -0.05050000      -0.00800000       0.12980000
C       -0.04260000       1.43410000      -0.10030000
C        1.35530000       2.00690000      -0.21450000
O        2.01270000       2.33380000       1.03210000
C        1.73100000       3.39490000       0.11280000
C        2.90900000       3.79390000      -0.76860000
C        3.18770000       2.52620000      -1.55320000
C        2.32030000       1.55290000      -1.26710000
H       -0.03860000      -2.24480000       0.47370000
H       -0.59660000       1.65900000      -1.02140000
H       -0.56080000       1.94580000       0.71830000
H        1.01980000       4.13830000       0.46460000
H        2.64850000       4.63490000      -1.42400000
H        3.77230000       4.11040000      -0.17080000
H        4.02750000       2.43880000      -2.23340000
H        2.30560000       0.55490000      -1.68600000
