10
Properties=species:S:1:pos:R:3 gdb_3812=T pbc="F F F"
C        0.01120000       1.39120000       0.00810000
O       -0.03140000      -0.04460000       0.00320000
C       -1.23530000      -0.57620000       0.01040000
N       -2.38080000       0.05070000       0.02150000
O       -3.29380000      -0.96520000       0.02480000
N       -2.62370000      -2.17700000       0.01480000
N       -1.38740000      -1.95020000       0.00650000
H        1.06820000       1.65260000       0.00090000
H       -0.48950000       1.78960000      -0.87880000
H       -0.47570000       1.78310000       0.90560000
