18
Properties=species:S:1:pos:R:3 gdb_99037=T pbc="F F F"
C       -1.55130000       1.72810000       0.76590000
N       -1.86610000       0.34770000       1.07370000
C       -1.68510000      -0.51350000       0.15010000
N       -1.20550000      -0.33350000      -1.11480000
N       -1.97680000      -1.85330000       0.50440000
C       -2.00620000      -2.96520000      -0.27280000
O       -1.74670000      -2.99430000      -1.47170000
C       -2.39270000      -4.26230000       0.44190000
O       -2.40460000      -5.32670000      -0.45900000
H       -1.71770000       2.34300000       1.65360000
H       -0.50250000       1.86520000       0.45750000
H       -2.18610000       2.14070000      -0.03660000
H       -1.21830000       0.60250000      -1.48090000
H       -1.29760000      -1.10710000      -1.76050000
H       -2.24410000      -1.92670000       1.47620000
H       -1.67410000      -4.43740000       1.25910000
H       -3.38130000      -4.12640000       0.90900000
H       -2.13680000      -4.94040000      -1.30890000
