19
Properties=species:S:1:pos:R:3 gdb_90013=T pbc="F F F"
C        0.78430000       1.44790000       0.23030000
C       -0.06600000       0.20200000       0.00030000
C        0.53620000      -0.80020000      -1.03110000
C        1.02910000      -1.68480000       0.14410000
C        1.17170000      -3.21240000       0.10700000
O        2.60330000      -3.09700000       0.40760000
C        2.52440000      -1.72800000       0.45100000
O        3.40300000      -0.95340000       0.66620000
C        0.09660000      -0.89310000       1.09820000
H        1.82660000       1.18010000       0.43370000
H        0.76710000       2.09990000      -0.64980000
H        0.40930000       2.02430000       1.08290000
H       -1.10200000       0.48700000      -0.20110000
H       -0.22770000      -1.31410000      -1.62150000
H        1.30550000      -0.41400000      -1.70460000
H        0.65640000      -3.76670000       0.89520000
H        1.01970000      -3.68990000      -0.86410000
H        0.53020000      -0.57780000       2.05060000
H       -0.82950000      -1.44130000       1.29330000
