19
Properties=species:S:1:pos:R:3 gdb_114558=T pbc="F F F"
C        0.06370000       1.29720000       0.07240000
O       -0.06080000      -0.10470000      -0.09780000
C        0.66800000      -0.61260000      -1.17360000
O        2.08360000      -0.57800000      -0.97700000
C        2.40730000      -1.99200000      -0.97460000
C        1.32350000      -2.60720000      -0.06470000
C        0.43150000      -2.12870000      -1.26730000
O       -0.86340000      -2.55110000      -1.51220000
C        1.61030000      -2.53150000      -2.19150000
H        1.09810000       1.57590000       0.30380000
H       -0.25690000       1.83800000      -0.83040000
H       -0.58380000       1.57870000       0.90540000
H        0.41490000      -0.05830000      -2.09090000
H        3.47690000      -2.12640000      -0.83780000
H        1.37150000      -3.69550000      -0.00860000
H        1.16650000      -2.15120000       0.91270000
H       -1.43920000      -2.03730000      -0.93180000
H        1.72840000      -2.00850000      -3.14330000
H        1.68720000      -3.61240000      -2.31920000
