17
Properties=species:S:1:pos:R:3 gdb_93444=T pbc="F F F"
C       -0.10590000       1.53920000      -0.00560000
C        0.09950000       0.02250000      -0.03430000
C        0.99170000      -0.44440000      -1.18420000
O        1.12130000      -1.87370000      -1.21620000
C        1.46200000      -2.51860000      -0.07130000
O        1.58330000      -3.71000000      -0.06500000
C        1.67040000      -1.63320000       1.14820000
C        0.64950000      -0.50690000       1.28990000
O        0.31580000      -0.07520000       2.36440000
H        0.85340000       2.06630000       0.03570000
H       -0.64440000       1.88000000      -0.89410000
H       -0.67690000       1.81530000       0.88260000
H       -0.87610000      -0.47120000      -0.16020000
H        0.56130000      -0.17570000      -2.15060000
H        1.98700000       0.01670000      -1.12110000
H        1.70400000      -2.24640000       2.04780000
H        2.65320000      -1.14890000       1.04130000
