15
Properties=species:S:1:pos:R:3 gdb_65425=T pbc="F F F"
O       -0.07780000       1.35310000       0.09430000
C       -0.00370000      -0.03690000       0.00380000
C       -0.62870000      -0.87800000       1.10560000
C       -1.32010000      -0.75260000      -0.22520000
C       -2.58350000       0.08180000      -0.37340000
C       -3.76400000      -0.62870000       0.11830000
N       -4.68840000      -1.19930000       0.51140000
C        1.17670000      -0.53970000      -0.66840000
N        2.13260000      -0.92930000      -1.18970000
H        0.59360000       1.65760000       0.71590000
H       -0.16620000      -1.82170000       1.36800000
H       -1.03400000      -0.31020000       1.93640000
H       -1.27220000      -1.62070000      -0.87350000
H       -2.47620000       1.02340000       0.17170000
H       -2.74230000       0.34400000      -1.42520000
