16
Properties=species:S:1:pos:R:3 gdb_26544=T pbc="F F F"
C       -0.17990000       1.44060000      -0.03670000
C       -0.09060000      -0.06160000       0.00380000
C       -1.18930000      -0.84740000      -0.15940000
O       -2.45360000      -0.41030000      -0.37060000
N       -1.12790000      -2.21210000      -0.12580000
C        0.06870000      -2.85240000       0.07810000
C        1.20770000      -2.15050000       0.24920000
C        1.22060000      -0.68460000       0.22570000
O        2.24950000      -0.02740000       0.37990000
H       -0.54430000       1.81920000      -1.00130000
H       -0.82510000       1.84980000       0.75240000
H        0.82770000       1.83270000       0.11770000
H       -2.44280000       0.55320000      -0.38590000
H       -1.98410000      -2.72590000      -0.25450000
H        0.01820000      -3.93400000       0.08880000
H        2.14920000      -2.66000000       0.40960000
