13
Properties=species:S:1:pos:R:3 gdb_19502=T pbc="F F F"
N        0.22530000      -1.18770000       0.13510000
C        0.14250000      -0.03410000       0.09390000
C        0.04720000       1.39210000       0.04780000
C        0.46390000       2.28170000       1.23830000
O        1.23350000       1.72310000       2.25240000
C        2.43250000       1.21930000       1.66700000
O        2.52940000       1.74810000       0.34590000
C        1.29660000       2.29780000       0.01340000
H       -0.79650000       1.77270000      -0.52070000
H       -0.19840000       3.06730000       1.57860000
H        3.29250000       1.55610000       2.25600000
H        2.39200000       0.12550000       1.62500000
H        1.35960000       3.09740000      -0.71340000
