17
Properties=species:S:1:pos:R:3 gdb_32692=T pbc="F F F"
C       -0.06850000       1.62960000      -0.08600000
C       -0.05610000       0.09730000      -0.06600000
N       -1.41390000      -0.41080000      -0.11890000
C       -1.76930000      -1.20920000      -1.04190000
N       -0.89490000      -1.67130000      -2.06750000
C       -1.35170000      -2.49590000      -2.92540000
N       -2.64590000      -2.96420000      -2.92010000
C       -3.48430000      -2.47920000      -1.93230000
N       -3.11750000      -1.65430000      -1.03450000
H        0.94460000       2.02490000       0.04160000
H       -0.46310000       2.00150000      -1.03710000
H       -0.70150000       2.02010000       0.71600000
H        0.58090000      -0.28750000      -0.87140000
H        0.37850000      -0.23630000       0.88670000
H       -0.71760000      -2.87610000      -3.72600000
H       -2.97350000      -3.61140000      -3.61780000
H       -4.50760000      -2.84960000      -1.96380000
