15
Properties=species:S:1:pos:R:3 gdb_34608=T pbc="F F F"
N        0.17380000      -1.02960000       0.44270000
C        0.06890000       0.09360000       0.19440000
C       -0.06660000       1.50270000      -0.11630000
N       -1.12020000       2.11230000       0.22500000
C       -1.29070000       3.51780000      -0.11360000
C       -0.08760000       4.19630000      -0.74480000
C        1.20600000       4.32440000       0.03560000
C        1.08460000       3.32580000      -1.07930000
O        1.04020000       1.94970000      -0.75690000
H       -2.14030000       3.57210000      -0.80570000
H       -1.61330000       4.03890000       0.79650000
H       -0.32030000       4.98890000      -1.44820000
H        1.83200000       5.19480000      -0.12370000
H        1.22200000       3.93060000       1.04710000
H        1.63940000       3.45850000      -1.99930000
