19
Properties=species:S:1:pos:R:3 gdb_72544=T pbc="F F F"
C       -0.03800000       1.50190000       0.05630000
C        0.00950000      -0.00920000      -0.01250000
C        0.71850000      -0.54980000      -1.26390000
O        0.71240000      -1.98280000      -1.23600000
C        0.05220000      -2.44810000      -0.06320000
C        0.78290000      -1.90350000       1.16260000
O        0.70150000      -0.47270000       1.13840000
C       -1.37950000      -1.91590000      -0.05920000
O       -1.32930000      -0.48440000      -0.00700000
H        0.97450000       1.91080000       0.07340000
H       -0.57810000       1.90210000      -0.80450000
H       -0.55630000       1.80020000       0.96990000
H        0.20070000      -0.20380000      -2.16700000
H        1.75570000      -0.19360000      -1.29060000
H        0.07570000      -3.54000000      -0.09370000
H        0.32660000      -2.27070000       2.09140000
H        1.83630000      -2.20910000       1.14390000
H       -1.90400000      -2.22960000      -0.97030000
H       -1.93680000      -2.28470000       0.81210000
