15
Properties=species:S:1:pos:R:3 gdb_43899=T pbc="F F F"
O       -0.03860000       0.03620000       0.46350000
C       -0.08090000       1.17980000       0.12690000
C       -1.19240000       2.22780000      -0.09890000
C       -0.02870000       3.25610000      -0.05980000
C        0.53220000       3.71790000       1.32740000
C        1.63450000       2.62900000       1.17750000
N        0.97320000       2.12090000      -0.07330000
C        0.03150000       4.23080000      -1.13500000
N        0.05970000       5.02860000      -1.97090000
H       -1.70750000       2.16520000      -1.05970000
H       -1.92620000       2.28710000       0.70660000
H        0.88060000       4.75000000       1.35930000
H       -0.16680000       3.54840000       2.14910000
H        2.63070000       3.02110000       0.96580000
H        1.69940000       1.87080000       1.96030000
