17
Properties=species:S:1:pos:R:3 gdb_13567=T pbc="F F F"
C       -0.45550000       1.18890000       0.05160000
N        0.11920000      -0.14890000       0.11530000
C        0.73450000      -0.57010000       1.26080000
O        0.79260000       0.05430000       2.29950000
C        0.21430000      -0.89110000      -1.10130000
C       -0.09610000      -2.37460000      -1.11410000
C       -1.04270000      -1.40130000      -1.76650000
O       -2.25000000      -1.09900000      -1.14020000
H        0.11570000       1.82570000      -0.63600000
H       -1.49130000       1.13380000      -0.29020000
H       -0.41030000       1.61580000       1.05340000
H        1.17970000      -1.57460000       1.13800000
H        0.99330000      -0.55310000      -1.78520000
H        0.51420000      -3.02540000      -1.72950000
H       -0.43590000      -2.80670000      -0.18000000
H       -1.06330000      -1.36120000      -2.85510000
H       -2.81520000      -1.87730000      -1.17570000
