21
Properties=species:S:1:pos:R:3 gdb_82954=T pbc="F F F"
C       -0.16190000       1.54980000       0.11450000
C        0.01490000       0.05310000      -0.00260000
C        0.66790000      -0.61900000      -1.20220000
C        1.37480000       0.16990000      -2.30680000
C        2.89470000       0.01040000      -2.19960000
C        3.76720000       1.14410000      -1.70030000
C        3.42670000       0.00180000      -0.79210000
O        2.47490000       0.25890000       0.20880000
C        1.36470000      -0.59770000       0.13710000
H        0.75570000       2.08290000      -0.14060000
H       -0.96620000       1.90870000      -0.53730000
H       -0.41950000       1.82300000       1.14330000
H       -0.80000000      -0.52210000       0.43090000
H        0.23440000      -1.56430000      -1.51340000
H        1.03650000      -0.18750000      -3.28280000
H        1.10150000       1.22830000      -2.26420000
H        3.34720000      -0.68330000      -2.90070000
H        4.78380000       1.22090000      -2.07080000
H        3.28700000       2.09420000      -1.48970000
H        4.20140000      -0.70540000      -0.50090000
H        1.46850000      -1.51060000       0.72200000
