16
Properties=species:S:1:pos:R:3 gdb_10137=T pbc="F F F"
C       -0.16950000       1.54820000      -0.23960000
C       -0.29570000       0.07280000      -0.60370000
N        1.01520000      -0.57950000      -0.53560000
C        0.98710000      -2.00060000      -0.88470000
C        0.59660000      -2.30290000      -2.27460000
C        0.26420000      -2.49280000      -3.41320000
C        2.30420000      -2.59940000      -0.58730000
N        3.33480000      -3.06540000      -0.35660000
H        0.27090000       1.66650000       0.75410000
H        0.46540000       2.07860000      -0.95830000
H       -1.15160000       2.02940000      -0.24830000
H       -0.95160000      -0.43400000       0.11600000
H       -0.76800000      -0.03320000      -1.59390000
H        1.67080000      -0.10350000      -1.14930000
H        0.26250000      -2.48020000      -0.21110000
H       -0.02420000      -2.67500000      -4.41950000
