22
Properties=species:S:1:pos:R:3 gdb_102506=T pbc="F F F"
C       -0.17670000       1.49320000      -0.09310000
C       -0.11120000      -0.03240000       0.03650000
C        0.77460000      -0.52610000       1.19950000
C        0.11400000      -0.30640000       2.57460000
C        1.06530000      -0.43090000       3.76960000
C        1.14390000      -2.02180000       1.02060000
O        0.01830000      -2.88280000       0.99170000
C        1.98970000      -2.22100000      -0.17630000
N        2.63120000      -2.36860000      -1.12650000
H        0.82020000       1.91430000      -0.26090000
H       -0.80640000       1.78270000      -0.93960000
H       -0.59300000       1.96630000       0.80150000
H       -1.12740000      -0.42970000       0.16200000
H        0.27310000      -0.44040000      -0.90710000
H        1.72190000       0.03080000       1.16720000
H       -0.33580000       0.69170000       2.58850000
H       -0.71170000      -1.02000000       2.67730000
H        1.89920000       0.27510000       3.68900000
H        0.53920000      -0.21790000       4.70500000
H        1.48870000      -1.43620000       3.86330000
H        1.73030000      -2.35240000       1.88350000
H       -0.48850000      -2.69100000       0.19460000
