16
Properties=species:S:1:pos:R:3 gdb_35295=T pbc="F F F"
C       -0.01170000      -1.23400000      -0.10410000
C        0.00780000      -0.03210000      -0.04800000
C        0.01170000       1.38740000       0.04070000
C        0.27920000       2.28840000      -1.14560000
C        1.19740000       2.37970000       0.03110000
C        0.53010000       3.22110000       1.13720000
C       -0.66830000       2.19990000       1.15870000
C        1.27240000       3.28790000       2.38580000
N        1.86640000       3.33950000       3.37620000
H       -0.02390000      -2.29460000      -0.15480000
H        0.68900000       1.78500000      -2.01370000
H       -0.41080000       3.09800000      -1.37380000
H        2.25590000       2.16380000      -0.02580000
H        0.26980000       4.23920000       0.82930000
H       -1.65290000       2.61330000       0.92490000
H       -0.71570000       1.65510000       2.10110000
