16
Properties=species:S:1:pos:R:3 gdb_131526=T pbc="F F F"
O       -0.41240000       1.40970000      -0.37030000
C        0.05270000       0.10970000      -0.02040000
C       -1.18040000      -0.81990000       0.14800000
C       -1.37000000      -1.56450000      -1.20480000
N       -0.04050000      -1.43210000      -1.77440000
N        0.54890000      -1.94600000      -2.87000000
C        1.72500000      -1.31960000      -2.84400000
N        1.91070000      -0.44210000      -1.81340000
C        0.76320000      -0.54850000      -1.16590000
H        0.34320000       1.91320000      -0.69360000
H        0.65980000       0.14870000       0.89220000
H       -0.98230000      -1.54540000       0.94070000
H       -2.05640000      -0.23360000       0.42770000
H       -1.64380000      -2.61440000      -1.08150000
H       -2.10860000      -1.08440000      -1.85390000
H        2.47780000      -1.51060000      -3.59450000
