18
Properties=species:S:1:pos:R:3 gdb_62373=T pbc="F F F"
C       -0.16570000       1.53790000      -0.01210000
C        0.00080000       0.01190000       0.00680000
C       -1.32310000      -0.58470000      -0.19530000
N       -2.39440000      -0.98820000      -0.35820000
C        1.18890000      -0.61000000      -0.85140000
C        2.13080000      -0.18810000       0.32720000
C        0.88370000      -0.61830000       1.17220000
C        0.81730000      -2.10480000       0.79710000
C        1.01670000      -2.09940000      -0.52430000
H        0.77860000       2.06330000       0.13200000
H       -0.59270000       1.85810000      -0.96730000
H       -0.85500000       1.85110000       0.77790000
H        1.35380000      -0.30480000      -1.88380000
H        3.02880000      -0.79200000       0.46020000
H        2.37790000       0.87360000       0.36880000
H        0.73640000      -0.32150000       2.20980000
H        0.62710000      -2.92540000       1.47260000
H        1.03510000      -2.91440000      -1.23240000
