21
Properties=species:S:1:pos:R:3 gdb_69556=T pbc="F F F"
C       -0.13090000       1.53520000       0.06790000
C        0.14250000       0.06830000      -0.00620000
O       -0.74770000      -0.81670000       0.69520000
C        0.65730000      -0.91610000       0.96750000
C        1.32220000      -1.76380000      -0.14980000
C        2.80460000      -2.00760000       0.01790000
C        0.41960000      -2.87700000      -0.76950000
C       -0.13660000      -1.85480000      -1.80970000
C        0.74870000      -0.73650000      -1.18890000
H        0.74690000       2.11060000      -0.24350000
H       -0.96250000       1.80890000      -0.59200000
H       -0.39740000       1.82320000       1.08860000
H        0.96000000      -0.81490000       2.00650000
H        2.99700000      -2.74300000       0.80920000
H        3.25120000      -2.38930000      -0.90640000
H        3.33350000      -1.08570000       0.28820000
H        0.99770000      -3.69030000      -1.21700000
H       -0.32290000      -3.30110000      -0.09140000
H        0.13270000      -2.08940000      -2.84210000
H       -1.21160000      -1.67560000      -1.75520000
H        1.41540000      -0.16800000      -1.83990000
