20
Properties=species:S:1:pos:R:3 gdb_97396=T pbc="F F F"
C       -0.01730000       1.35060000      -0.24670000
N        0.01130000      -0.04040000       0.15290000
C       -1.05270000      -0.69820000       0.02790000
O       -1.11220000      -1.99220000       0.40390000
C       -2.32090000      -2.67490000       0.12420000
C       -2.42750000      -3.51940000      -1.18000000
C       -1.38520000      -4.49120000      -0.54570000
C       -2.37700000      -4.13960000       0.60710000
C       -3.52510000      -4.32590000      -0.42880000
H        0.73870000       1.52690000      -1.02050000
H       -0.99320000       1.68740000      -0.63450000
H        0.24910000       1.98470000       0.60680000
H       -1.99840000      -0.29610000      -0.37010000
H       -3.18120000      -2.04120000       0.36970000
H       -2.46090000      -3.15080000      -2.20580000
H       -1.41370000      -5.52310000      -0.90420000
H       -0.36580000      -4.12220000      -0.44320000
H       -2.35150000      -4.48540000       1.64040000
H       -4.47160000      -3.81640000      -0.22420000
H       -3.68690000      -5.34700000      -0.77800000
