19
Properties=species:S:1:pos:R:3 gdb_92428=T pbc="F F F"
C       -0.21260000       1.53810000       0.01260000
C        0.01550000       0.02870000       0.02600000
C        0.88330000      -0.50640000      -1.18050000
C        2.02910000      -1.30210000      -0.50080000
C        2.91980000      -0.29280000       0.23620000
O        2.07780000       0.22750000       1.29960000
C        0.82900000      -0.47410000       1.23870000
C        1.26830000      -1.84980000       0.71630000
O        1.06040000      -2.96350000       1.10180000
H        0.73750000       2.07050000       0.10820000
H       -0.69180000       1.84880000      -0.92160000
H       -0.85720000       1.84970000       0.84120000
H       -0.95390000      -0.48480000       0.03000000
H        0.29460000      -1.14660000      -1.84220000
H        1.28330000       0.31630000      -1.78180000
H        2.55320000      -2.02980000      -1.11660000
H        3.80760000      -0.76390000       0.67630000
H        3.24210000       0.53710000      -0.40360000
H        0.34320000      -0.43640000       2.21210000
