18
Properties=species:S:1:pos:R:3 gdb_98737=T pbc="F F F"
C        0.17190000       1.42470000      -0.40730000
C       -0.00540000      -0.01040000       0.08230000
C       -1.46020000      -0.44870000       0.10970000
O       -2.38780000       0.24610000      -0.22950000
N       -1.65780000      -1.73040000       0.65810000
C       -1.23840000      -2.96860000       0.05200000
C       -2.70490000      -2.60920000       0.17830000
C       -3.52500000      -3.28540000       1.22740000
O       -4.63020000      -3.72160000       1.04100000
H        1.23040000       1.69870000      -0.41380000
H       -0.22430000       1.54520000      -1.41850000
H       -0.36420000       2.12520000       0.23750000
H        0.55250000      -0.71410000      -0.54990000
H        0.40220000      -0.14490000       1.09160000
H       -0.82860000      -2.94610000      -0.95530000
H       -0.79670000      -3.70790000       0.71590000
H       -3.23330000      -2.32400000      -0.72710000
H       -3.01010000      -3.36280000       2.21180000
