20
Properties=species:S:1:pos:R:3 gdb_19353=T pbc="F F F"
C       -0.22210000       1.51110000      -0.00490000
C        0.10240000       0.01110000       0.03560000
C        0.77390000      -0.47640000      -1.21810000
C        0.02670000      -0.93080000      -2.44490000
C        0.96030000      -1.88930000      -1.74610000
C        2.46700000      -1.60550000      -1.99770000
C        2.73650000      -0.43800000      -2.90750000
C        2.28460000      -0.18440000      -1.49420000
H        0.68440000       2.10660000      -0.15810000
H       -0.90990000       1.74040000      -0.82530000
H       -0.68510000       1.84250000       0.92990000
H        0.74740000      -0.19930000       0.90000000
H       -0.81950000      -0.56230000       0.19510000
H       -1.02470000      -1.13780000      -2.26250000
H        0.21460000      -0.54510000      -3.44100000
H        0.60570000      -2.81790000      -1.31560000
H        3.24100000      -2.31380000      -1.73170000
H        3.79280000      -0.24320000      -3.07150000
H        2.12380000      -0.21120000      -3.77310000
H        2.89740000       0.35870000      -0.78500000
