13
Properties=species:S:1:pos:R:3 gdb_21854=T pbc="F F F"
O        0.02200000       1.39530000      -0.03270000
C        0.04560000       0.04970000      -0.06600000
C        0.11060000      -0.81530000      -1.13880000
C        0.20580000      -1.41760000      -2.53670000
C        0.19460000      -2.81600000      -1.79850000
N        0.10200000      -2.02590000      -0.55000000
N        0.03910000      -2.00100000       0.77710000
N        0.00190000      -0.70580000       1.06510000
H       -0.02720000       1.64500000       0.89940000
H       -0.65280000      -1.24460000      -3.18830000
H        1.12650000      -1.20430000      -3.08290000
H       -0.67830000      -3.44560000      -1.97930000
H        1.11240000      -3.40180000      -1.87290000
