14
Properties=species:S:1:pos:R:3 gdb_49958=T pbc="F F F"
N       -0.54340000       1.16630000       0.79410000
C       -0.20960000       0.11650000       0.17280000
N       -1.13340000      -0.56290000      -0.64320000
C       -2.50960000      -0.65030000      -0.26310000
C       -1.63410000      -1.89810000      -0.26500000
C       -1.76800000      -2.85190000      -1.42510000
O       -1.75680000      -4.04600000      -1.32530000
C       -1.26750000      -2.46810000       1.01050000
N       -0.94650000      -2.92050000       2.02410000
H        0.25910000       1.57180000       1.27400000
H        0.78410000      -0.33950000       0.13830000
H       -2.78950000      -0.25890000       0.71070000
H       -3.23960000      -0.53500000      -1.05920000
H       -1.88580000      -2.31900000      -2.39230000
