14
Properties=species:S:1:pos:R:3 gdb_125136=T pbc="F F F"
C        0.04170000       1.50300000      -0.01420000
C       -0.04670000       0.01100000       0.00390000
C       -0.22620000      -0.84270000      -1.03930000
O       -0.42500000      -0.57300000      -2.34640000
C        0.11020000      -1.42260000      -3.29680000
O       -0.09820000      -1.24670000      -4.45090000
O       -0.25660000      -2.12400000      -0.64860000
N       -0.07500000      -2.15670000       0.74390000
C        0.03740000      -0.89990000       1.09650000
H        0.99240000       1.85400000       0.40070000
H       -0.03790000       1.87750000      -1.03740000
H       -0.76130000       1.96030000       0.57330000
H        0.71650000      -2.22370000      -2.85090000
H        0.18370000      -0.67010000       2.14360000
