19
Properties=species:S:1:pos:R:3 gdb_92166=T pbc="F F F"
C       -0.17730000       1.55940000      -0.00370000
C        0.00810000       0.03840000      -0.04750000
C        0.86740000      -0.46340000      -1.24920000
C        2.17040000      -0.91340000      -0.59520000
O        2.76810000       0.25880000       0.06850000
C        2.23430000      -0.20390000       1.30770000
C        1.79520000      -1.53300000       0.76850000
C        0.74960000      -0.52080000       1.17490000
O        0.04610000      -0.78600000       2.34770000
H        0.79320000       2.06280000      -0.01730000
H       -0.75970000       1.91280000      -0.86080000
H       -0.71480000       1.86630000       0.90170000
H       -0.97780000      -0.43930000      -0.06530000
H        0.39080000      -1.31120000      -1.75430000
H        1.04610000       0.31720000      -1.99470000
H        2.89640000      -1.41790000      -1.23490000
H        2.72230000       0.08510000       2.23210000
H        1.89780000      -2.54600000       1.13070000
H       -0.11630000       0.05130000       2.79580000
