16
Properties=species:S:1:pos:R:3 gdb_36295=T pbc="F F F"
C       -0.01480000      -1.04730000      -0.42200000
C       -0.02240000       0.10320000      -0.07510000
C       -0.00160000       1.49830000       0.35270000
C        1.36750000       2.13530000       0.17170000
C        1.86570000       2.69830000      -1.12720000
O        0.88480000       3.05500000      -2.09390000
C        0.15570000       4.04580000      -1.51740000
N        0.47770000       4.45200000      -0.35570000
C        1.59850000       3.63420000       0.05040000
H       -0.02140000      -2.06270000      -0.73200000
H       -0.76300000       2.06250000      -0.19480000
H       -0.28560000       1.56380000       1.41060000
H        2.15580000       1.63550000       0.72810000
H        2.81320000       2.42770000      -1.57440000
H       -0.66340000       4.41700000      -2.12120000
H        2.35170000       4.11730000       0.66080000
