19
Properties=species:S:1:pos:R:3 gdb_72010=T pbc="F F F"
C        0.02890000       1.55600000      -0.05910000
C        0.00950000       0.04950000      -0.07270000
C        0.42410000      -0.82540000      -1.26910000
C       -0.34210000      -1.93870000      -0.51380000
C        0.57230000      -2.15630000       0.71600000
C        0.40210000      -0.72390000       1.27380000
C       -1.10980000      -0.73160000       1.55350000
O       -1.80340000      -0.50390000       2.50300000
C       -1.32200000      -0.83040000       0.05660000
H        1.05830000       1.93280000      -0.05360000
H       -0.47230000       1.96780000      -0.94130000
H       -0.47400000       1.95210000       0.83000000
H       -0.09020000      -0.50280000      -2.17910000
H        1.48730000      -0.98140000      -1.48300000
H       -0.73090000      -2.81750000      -1.02610000
H        0.21720000      -2.92150000       1.41310000
H        1.59870000      -2.39830000       0.42660000
H        1.12280000      -0.33030000       1.98750000
H       -2.25220000      -0.61230000      -0.46320000
