20
Properties=species:S:1:pos:R:3 gdb_96170=T pbc="F F F"
O       -0.04960000       1.44330000       0.09040000
C       -0.00590000       0.02550000      -0.03320000
C        0.70450000      -0.55560000       1.20540000
O        0.87860000      -1.95760000       1.22150000
C       -0.33320000      -2.69150000       1.32510000
C       -0.98440000      -2.89540000      -0.02610000
C       -2.45500000      -2.73510000      -0.21250000
N       -1.52910000      -1.76220000      -0.77760000
C       -1.46030000      -0.43410000      -0.17000000
H        0.85460000       1.77210000       0.11490000
H        0.53480000      -0.28090000      -0.94110000
H        1.71600000      -0.13510000       1.26340000
H        0.15190000      -0.21930000       2.09900000
H       -0.06520000      -3.66580000       1.74760000
H       -1.01710000      -2.20100000       2.03320000
H       -0.45630000      -3.60600000      -0.66010000
H       -2.99350000      -3.35440000      -0.92490000
H       -3.03840000      -2.43720000       0.65880000
H       -1.95680000      -0.37260000       0.81240000
H       -1.97790000       0.26790000      -0.83130000
