17
Properties=species:S:1:pos:R:3 gdb_72947=T pbc="F F F"
O        0.14900000       1.36570000      -0.17460000
C        0.00860000      -0.00870000      -0.00380000
C        0.27510000      -0.97470000      -1.17590000
O       -1.02550000      -1.59970000      -0.98620000
C       -1.39250000      -0.66710000       0.04900000
C       -1.13330000      -1.16900000       1.50510000
C       -0.41450000      -2.52220000       1.62780000
O        0.88970000      -1.89290000       1.46650000
C        0.30210000      -0.58290000       1.42820000
H        1.07090000       1.60130000      -0.01790000
H        0.33060000      -0.45810000      -2.14130000
H        1.09490000      -1.68910000      -1.06420000
H       -2.32990000      -0.14420000      -0.15400000
H       -1.86760000      -0.89160000       2.25960000
H       -0.49970000      -2.99020000       2.61490000
H       -0.61940000      -3.25130000       0.83990000
H        0.74560000       0.11840000       2.14310000
