21
Properties=species:S:1:pos:R:3 gdb_87575=T pbc="F F F"
C        0.08800000       1.61050000      -0.07600000
C       -0.05300000       0.12070000       0.09460000
O        1.14220000      -0.67070000      -0.08280000
C        0.55740000      -0.61480000       1.20680000
C        1.30490000      -0.10910000       2.42400000
C        0.33040000       0.01830000       3.56770000
C        0.84140000      -1.34590000       3.20280000
C        0.13020000      -1.90320000       1.95070000
C       -1.33610000      -2.30900000       2.02860000
H        0.95430000       1.98590000       0.47430000
H        0.21190000       1.86980000      -1.13280000
H       -0.80750000       2.12300000       0.29250000
H       -0.93090000      -0.32180000      -0.38080000
H        2.27340000       0.37430000       2.41240000
H        0.74020000       0.43900000       4.48050000
H       -0.70200000       0.30130000       3.37860000
H        1.41010000      -1.94400000       3.90410000
H        0.72380000      -2.72210000       1.52940000
H       -1.95710000      -1.51180000       2.44890000
H       -1.72900000      -2.55090000       1.03510000
H       -1.46170000      -3.19650000       2.65820000
