16
Properties=species:S:1:pos:R:3 gdb_81522=T pbc="F F F"
O        0.19350000       1.40780000      -0.10500000
C        0.10320000       0.02790000      -0.05070000
C        0.00080000      -0.65520000       1.35150000
N       -1.37140000      -0.01200000       1.44390000
C       -1.31940000      -0.61980000       0.05140000
C       -0.64840000      -1.89700000       0.63450000
O        0.11520000      -2.64090000      -0.28610000
C       -1.46990000      -2.76060000       1.47430000
C       -2.09680000      -3.52680000       2.15830000
H       -0.44410000       1.72870000       0.55090000
H        0.79520000      -0.40830000      -0.76530000
H        0.70180000      -0.64400000       2.18770000
H       -1.98510000      -0.56130000       2.05070000
H       -2.16250000      -0.56540000      -0.63830000
H        0.45380000      -3.42130000       0.16510000
H       -2.66420000      -4.19640000       2.75730000
