17
Properties=species:S:1:pos:R:3 gdb_24616=T pbc="F F F"
C       -0.01070000       1.37700000      -0.36790000
O        1.34040000       1.64170000       0.05560000
C        1.45820000       0.33190000       0.64340000
C        0.07620000      -0.10490000       0.08680000
C       -0.95080000      -0.64480000       1.02060000
C       -1.40110000      -0.12470000       2.21190000
N       -2.34790000      -1.01360000       2.66850000
C       -2.43320000      -2.01880000       1.75370000
N       -1.60800000      -1.82940000       0.75110000
H       -0.74380000       1.97550000       0.18990000
H       -0.14950000       1.55120000      -1.44130000
H        2.33110000      -0.21370000       0.26660000
H        1.50770000       0.37370000       1.74000000
H        0.16430000      -0.79430000      -0.75350000
H       -1.14670000       0.76570000       2.76260000
H       -2.87650000      -0.93170000       3.52080000
H       -3.10870000      -2.85270000       1.87320000
