16
Properties=species:S:1:pos:R:3 gdb_25808=T pbc="F F F"
C       -0.00760000       1.48170000       0.09370000
C       -0.00450000      -0.00370000      -0.03150000
C       -0.04290000      -0.83890000      -1.13050000
N       -0.01930000      -2.15450000      -0.75130000
C        0.03280000      -2.12990000       0.56680000
N        0.04290000      -0.85470000       1.04300000
C        0.07720000      -3.27050000       1.50480000
N        0.06100000      -4.48120000       0.89600000
O        0.12300000      -3.09190000       2.71410000
H        0.89910000       1.85360000       0.58510000
H       -0.05890000       1.93640000      -0.89810000
H       -0.86670000       1.84240000       0.67140000
H       -0.08600000      -0.54820000      -2.16980000
H        0.08000000      -0.63610000       2.02670000
H        0.02130000      -4.53310000      -0.10870000
H        0.08740000      -5.31490000       1.45670000
