20
Properties=species:S:1:pos:R:3 gdb_78955=T pbc="F F F"
C       -0.19450000       1.50790000      -0.07500000
C       -0.00580000      -0.00340000      -0.00600000
C        1.20960000      -0.53730000      -0.80880000
C        1.31610000      -2.02850000      -0.44210000
C        2.39350000      -1.83070000       0.55470000
C        2.15700000      -0.30570000       0.43930000
C        0.80850000      -0.49600000       1.21690000
C        0.52780000      -0.11000000       2.63990000
N        0.98470000      -2.00630000       1.02490000
H        0.74830000       2.04110000       0.09210000
H       -0.57370000       1.80920000      -1.05710000
H       -0.91050000       1.85440000       0.67780000
H       -0.95580000      -0.52420000      -0.17360000
H        1.44770000      -0.21300000      -1.82070000
H        1.02710000      -2.90400000      -1.01000000
H        3.21360000      -2.45710000       0.88400000
H        2.86530000       0.51170000       0.54300000
H        0.48590000       0.97770000       2.75620000
H       -0.43010000      -0.53020000       2.96680000
H        1.30510000      -0.49610000       3.30750000
