12
Properties=species:S:1:pos:R:3 gdb_128957=T pbc="F F F"
N        0.01540000      -1.08720000      -0.00430000
C        0.03530000       0.06660000       0.00210000
C        0.00210000       1.52810000       0.01080000
O        1.35150000       1.99930000      -0.00160000
C        1.47360000       3.32640000       0.00410000
N        2.66310000       3.91440000      -0.00630000
N        2.28230000       5.18970000       0.00490000
N        0.98170000       5.39400000       0.02090000
N        0.43760000       4.19760000       0.02060000
H       -0.54380000       1.89550000      -0.86530000
H       -0.52400000       1.88540000       0.90310000
H        2.94560000       5.95070000       0.00140000
