19
Properties=species:S:1:pos:R:3 gdb_107189=T pbc="F F F"
C       -0.01420000       1.38410000       0.05740000
O        0.09410000      -0.02890000       0.01700000
C        0.73140000      -0.52880000      -1.09720000
C        1.70040000      -1.65390000      -0.95720000
C        2.15380000      -0.35210000      -1.60500000
C        1.61540000      -0.11630000      -3.04240000
C        0.73650000      -1.16520000      -3.63540000
O        1.01740000      -2.53660000      -3.60860000
C        0.16600000      -0.30840000      -2.53380000
H        0.97240000       1.86190000      -0.01300000
H       -0.64960000       1.77460000      -0.74910000
H       -0.47070000       1.63770000       1.01680000
H        2.06120000      -1.74180000       0.06420000
H        1.62770000      -2.57830000      -1.51030000
H        2.97650000       0.22340000      -1.20230000
H        2.00230000       0.69320000      -3.65040000
H        0.34430000      -0.83850000      -4.60360000
H        0.17520000      -3.00510000      -3.59620000
H       -0.69510000       0.32510000      -2.71140000
