17
Properties=species:S:1:pos:R:3 gdb_4784=T pbc="F F F"
C       -0.64900000       1.00910000       0.07990000
N        0.53840000       0.14970000       0.17480000
C        0.92780000      -0.48150000      -1.02200000
C        1.86740000      -0.16190000      -1.98200000
C        1.84950000      -1.20090000      -2.96130000
N        2.71490000      -1.28590000      -4.07260000
C        0.89210000      -2.11330000      -2.57640000
N        0.33950000      -1.66000000      -1.38940000
H       -0.54190000       1.83190000      -0.64400000
H       -1.50970000       0.40660000      -0.22380000
H       -0.86570000       1.43160000       1.06560000
H        1.31730000       0.67590000       0.55070000
H        2.49200000       0.71920000      -1.98990000
H        2.85660000      -0.38380000      -4.51120000
H        2.36860000      -1.92800000      -4.77480000
H        0.55990000      -3.02860000      -3.03800000
H       -0.29010000      -2.17320000      -0.79840000
