25
Properties=species:S:1:pos:R:3 gdb_122189=T pbc="F F F"
C        0.06860000       1.52320000       0.23630000
C        0.03070000       0.00450000       0.04690000
C        0.69520000      -0.45760000      -1.25520000
C        0.64520000      -1.97870000      -1.44630000
C        1.40990000      -2.51290000      -2.66470000
C        0.88810000      -1.96520000      -3.99080000
C        2.95520000      -2.49040000      -2.50560000
O        3.02120000      -3.92650000      -2.41560000
C        1.60270000      -4.05310000      -2.63260000
H        1.09960000       1.89390000       0.25940000
H       -0.44760000       2.03760000      -0.58200000
H       -0.41280000       1.82170000       1.17270000
H        0.52380000      -0.48420000       0.89750000
H       -1.01140000      -0.34160000       0.06290000
H        0.20760000       0.04370000      -2.10070000
H        1.74110000      -0.11920000      -1.26390000
H        1.05010000      -2.46230000      -0.54680000
H       -0.40350000      -2.30120000      -1.51730000
H        1.02140000      -0.88100000      -4.06120000
H        1.41730000      -2.41800000      -4.83550000
H       -0.18050000      -2.17800000      -4.11240000
H        3.50930000      -2.10770000      -3.37330000
H        3.33910000      -2.00520000      -1.59890000
H        1.10560000      -4.58080000      -1.80820000
H        1.37580000      -4.57190000      -3.57400000
