18
Properties=species:S:1:pos:R:3 gdb_57005=T pbc="F F F"
C       -0.00140000       1.55060000      -0.00060000
C       -0.01250000       0.01060000       0.06610000
C        0.66080000      -0.47670000       1.26890000
C        1.21390000      -0.86850000       2.26150000
C       -1.44410000      -0.54790000      -0.05160000
C       -1.58390000      -2.09150000       0.04680000
N       -2.46990000      -2.32660000       1.19990000
C       -2.74630000      -1.18000000       1.65660000
O       -2.25270000      -0.06880000       1.05460000
H        1.02140000       1.93090000       0.04980000
H       -0.45380000       1.89300000      -0.93680000
H       -0.56980000       1.96880000       0.83280000
H        0.52960000      -0.37640000      -0.80920000
H        1.70190000      -1.21830000       3.13750000
H       -1.89070000      -0.14860000      -0.96850000
H       -2.02230000      -2.52800000      -0.85580000
H       -0.61940000      -2.57990000       0.22130000
H       -3.37160000      -0.97710000       2.51870000
