17
Properties=species:S:1:pos:R:3 gdb_49077=T pbc="F F F"
O       -0.08320000      -0.01180000       0.13650000
C        0.02390000       1.17740000      -0.05170000
C        1.32700000       1.90140000      -0.03810000
C        2.62820000       1.15620000       0.22160000
C        3.65100000       2.33040000       0.13050000
C        2.71300000       3.49520000      -0.16190000
C        1.56840000       3.03120000      -1.10780000
O        0.60400000       3.92170000      -0.45170000
C        1.38800000       3.32340000       0.63490000
H       -0.85830000       1.81910000      -0.25070000
H        2.62420000       0.66680000       1.19880000
H        2.80270000       0.37760000      -0.52540000
H        4.20630000       2.47650000       1.06160000
H        4.38520000       2.18650000      -0.66750000
H        3.10210000       4.50470000      -0.29090000
H        1.53770000       2.95370000      -2.19530000
H        1.13850000       3.60010000       1.66000000
