14
Properties=species:S:1:pos:R:3 gdb_1289=T pbc="F F F"
N       -0.21770000       1.26670000      -0.16790000
C        0.01550000      -0.07610000      -0.06410000
O        1.10150000      -0.60280000      -0.06640000
O       -1.16570000      -0.74530000       0.01000000
C       -1.05750000      -2.17990000       0.06210000
C       -2.47800000      -2.71200000       0.01780000
O       -3.13990000      -2.36820000      -1.18340000
H        0.57720000       1.86440000      -0.01950000
H       -1.12540000       1.62290000       0.07890000
H       -0.47620000      -2.52950000      -0.79540000
H       -0.54150000      -2.47980000       0.98030000
H       -2.45040000      -3.80540000       0.06520000
H       -3.02960000      -2.35250000       0.90120000
H       -3.05930000      -1.41250000      -1.27550000
