13
Properties=species:S:1:pos:R:3 gdb_9977=T pbc="F F F"
O       -0.05120000      -0.04560000       0.07820000
C       -0.00520000       1.14950000       0.02690000
C        1.30610000       1.95650000      -0.01230000
C        1.36100000       2.84810000      -1.28680000
C        1.39170000       2.06770000      -2.52160000
N        1.41670000       1.44510000      -3.49420000
C        1.37050000       2.78610000       1.18360000
C        1.36940000       3.47660000       2.16730000
H       -0.91940000       1.78340000       0.01620000
H        2.12770000       1.23380000      -0.03150000
H        0.49410000       3.51780000      -1.30470000
H        2.25050000       3.48310000      -1.23940000
H        1.39110000       4.07610000       3.04440000
