19
Properties=species:S:1:pos:R:3 gdb_51413=T pbc="F F F"
O       -0.33540000       0.03990000      -0.22940000
C       -0.01120000       1.18180000      -0.02390000
C        1.38110000       1.73780000      -0.20520000
C        1.40570000       2.89450000      -1.20360000
C        0.76710000       4.30320000      -0.88470000
C        1.57510000       4.72840000       0.35060000
C        2.82880000       4.39560000       0.02960000
C        2.68860000       3.79440000      -1.37550000
C        1.70960000       4.83840000      -2.01800000
H       -0.76070000       1.93060000       0.32620000
H        1.73080000       2.09980000       0.77070000
H        2.03700000       0.92600000      -0.53460000
H        1.06270000       2.53850000      -2.18170000
H       -0.30900000       4.47380000      -0.89310000
H        1.18360000       5.18930000       1.24620000
H        3.74540000       4.50770000       0.59050000
H        3.58110000       3.43380000      -1.88620000
H        1.38110000       4.57240000      -3.02750000
H        2.00140000       5.88890000      -1.96300000
