19
Properties=species:S:1:pos:R:3 gdb_41367=T pbc="F F F"
C        0.04710000       1.40870000       0.41970000
C        1.46970000       1.60160000      -0.21820000
C        1.43370000       0.11720000      -0.70000000
C        1.83480000      -0.93880000       0.36140000
O        0.46120000      -1.04900000       0.82970000
C        0.02660000      -0.04820000      -0.11880000
C       -0.91460000      -0.52950000      -1.22670000
C        0.03640000      -0.62100000      -2.41600000
C        1.29960000      -0.26930000      -2.13710000
H        0.01270000       1.46190000       1.50960000
H       -0.72680000       2.06140000       0.00740000
H        1.48460000       2.31940000      -1.04100000
H        2.27470000       1.85380000       0.47690000
H        2.20270000      -1.89280000      -0.03370000
H        2.50990000      -0.58960000       1.15330000
H       -1.35390000      -1.50180000      -0.97360000
H       -1.74770000       0.15830000      -1.42040000
H       -0.30500000      -0.95080000      -3.39280000
H        2.11160000      -0.27160000      -2.85730000
