20
Properties=species:S:1:pos:R:3 gdb_26092=T pbc="F F F"
C       -0.06690000       1.56070000       0.10470000
C        0.01820000       0.03480000      -0.01170000
C        0.66860000      -0.56960000       1.24150000
O       -1.30550000      -0.53550000      -0.04150000
C        0.75590000      -0.37950000      -1.26280000
C        1.74220000       0.21370000      -2.02390000
C        2.08510000      -0.69100000      -3.06810000
C        1.29700000      -1.80860000      -2.91790000
N        0.50300000      -1.61030000      -1.81880000
H        0.92820000       2.00750000       0.18490000
H       -0.55570000       1.99110000      -0.77550000
H       -0.64150000       1.83140000       0.99480000
H        0.09370000      -0.29890000       2.13230000
H        0.69760000      -1.65970000       1.16610000
H        1.69300000      -0.20550000       1.35150000
H       -1.77190000      -0.13170000      -0.78250000
H        2.17790000       1.18540000      -1.84900000
H        2.82110000      -0.53470000      -3.84190000
H        1.22670000      -2.71300000      -3.50070000
H       -0.22020000      -2.21980000      -1.47610000
