13
Properties=species:S:1:pos:R:3 gdb_14294=T pbc="F F F"
O        0.13240000       1.25060000      -0.30860000
C       -0.00460000      -0.10840000      -0.08330000
C       -0.50110000      -0.61940000       1.25570000
O       -1.05760000       0.36400000       2.09360000
C       -2.16830000       0.89280000       1.49900000
N       -2.81570000       1.83330000       2.01590000
O       -2.42580000       0.25030000       0.31800000
C       -1.40420000      -0.67970000       0.05680000
H        0.59550000       1.64430000       0.43960000
H        0.70760000      -0.75590000      -0.59560000
H       -0.06310000      -1.45030000       1.79320000
H       -3.60230000       2.08900000       1.42470000
H       -1.74450000      -1.56730000      -0.45950000
