12
Properties=species:S:1:pos:R:3 gdb_23632=T pbc="F F F"
F        0.03090000       0.02830000       0.00300000
C       -0.03230000       1.35570000       0.01080000
C       -1.21760000       1.99380000       0.03040000
C       -1.26520000       3.43990000       0.03860000
N       -2.33410000       4.12120000       0.05680000
O       -0.01540000       4.09400000       0.02480000
C        1.14120000       3.40900000       0.00540000
C        1.21340000       2.06720000      -0.00260000
H       -2.15920000       1.46360000       0.04050000
H       -2.13030000       5.12010000       0.05920000
H        1.99840000       4.07100000      -0.00290000
H        2.15990000       1.54710000      -0.01830000
