18
Properties=species:S:1:pos:R:3 gdb_68865=T pbc="F F F"
O       -0.01860000       1.34760000      -0.08290000
C        0.01100000      -0.04080000      -0.04700000
C       -0.38990000      -0.77030000       1.22680000
C       -1.27240000      -0.82300000      -0.00340000
O       -2.45270000      -0.07200000      -0.04080000
C       -1.09290000      -2.00490000      -0.90970000
C       -0.87130000      -1.67830000      -2.33940000
N        0.27870000      -1.98040000      -1.47860000
C        0.97540000      -0.76200000      -0.98020000
H       -0.95290000       1.59910000      -0.10650000
H        0.14300000      -1.66600000       1.53210000
H       -0.72800000      -0.12830000       2.03380000
H       -3.03680000      -0.37070000       0.66390000
H       -1.46760000      -2.98130000      -0.61100000
H       -1.07520000      -2.42160000      -3.10430000
H       -1.03270000      -0.64660000      -2.64650000
H        1.25600000      -0.10880000      -1.81200000
H        1.89200000      -1.07860000      -0.47210000
