22
Properties=species:S:1:pos:R:3 gdb_118404=T pbc="F F F"
C       -1.27910000       1.59160000      -0.62840000
C       -1.18860000       0.34150000       0.25530000
N       -2.17740000      -0.64040000      -0.15100000
C       -2.06230000      -1.63490000      -0.92160000
C       -3.32490000      -2.40750000      -1.30220000
O       -3.20410000      -3.80780000      -1.22070000
C       -3.05980000      -4.27880000       0.10040000
O       -1.01060000      -2.20390000      -1.57350000
C        0.33720000      -1.80960000      -1.36480000
H       -0.62990000       2.38400000      -0.24280000
H       -0.97630000       1.36880000      -1.65710000
H       -2.30710000       1.96370000      -0.65570000
H       -0.15440000      -0.01730000       0.27550000
H       -1.43540000       0.62590000       1.28530000
H       -4.13720000      -2.02650000      -0.67040000
H       -3.55970000      -2.19110000      -2.35060000
H       -2.13280000      -3.91930000       0.57110000
H       -3.90660000      -3.97480000       0.73520000
H       -3.02710000      -5.36990000       0.05010000
H        0.93750000      -2.46640000      -1.99830000
H        0.51270000      -0.77120000      -1.66370000
H        0.64000000      -1.94950000      -0.32210000
