12
Properties=species:S:1:pos:R:3 gdb_130675=T pbc="F F F"
O        0.07590000       0.08200000       0.73760000
C        0.02940000       1.20860000       0.30420000
N       -1.19090000       1.82770000       0.02870000
C       -1.49450000       3.16030000      -0.25470000
O       -2.57950000       3.47830000      -0.67990000
C       -0.50340000       4.17740000       0.23480000
N        0.76890000       4.12840000       0.31330000
N        1.51720000       3.15970000      -0.29790000
C        1.25320000       1.91510000      -0.20560000
H       -1.99210000       1.20410000       0.03570000
H       -0.98410000       5.06260000       0.64780000
H        1.98830000       1.22800000      -0.62110000
