16
Properties=species:S:1:pos:R:3 gdb_106030=T pbc="F F F"
O        0.18050000       1.14190000      -0.62620000
C       -0.06090000       0.14250000       0.34580000
C       -1.42900000      -0.44790000       0.18000000
C       -2.80090000      -0.04400000       0.68670000
C       -3.44350000      -1.01050000      -0.38710000
C       -3.08530000      -2.13140000       0.60100000
N       -2.10700000      -1.19730000       1.28220000
C       -2.10130000      -0.79540000      -1.11240000
O       -1.76520000      -0.66200000      -2.26000000
H        0.01080000       0.74820000      -1.49160000
H        0.68590000      -0.66620000       0.29950000
H        0.03430000       0.61190000       1.32950000
H       -3.10800000       0.86520000       1.18390000
H       -4.39050000      -0.92050000      -0.91110000
H       -3.87660000      -2.36340000       1.31670000
H       -2.65010000      -3.05450000       0.20270000
