20
Properties=species:S:1:pos:R:3 gdb_86567=T pbc="F F F"
C       -0.35270000       1.39640000       0.10530000
C        0.01680000      -0.07270000      -0.03050000
C        0.82850000      -0.50960000      -1.29190000
O        1.13450000       0.57440000      -2.13180000
C        1.96740000      -0.98240000      -0.33340000
N        1.15110000      -0.52280000       0.79020000
C        1.16580000      -0.77800000       2.12630000
C        2.42970000      -1.44870000       2.64270000
O        0.22460000      -0.47970000       2.84370000
H        0.50840000       2.03920000      -0.08860000
H       -1.14170000       1.65550000      -0.60710000
H       -0.71730000       1.57880000       1.11870000
H       -0.86950000      -0.69580000       0.13930000
H        0.36120000      -1.32940000      -1.84950000
H        1.61610000       0.24310000      -2.89590000
H        2.17330000      -2.05980000      -0.33780000
H        2.90640000      -0.43220000      -0.46820000
H        3.32980000      -0.92400000       2.30730000
H        2.39550000      -1.46070000       3.73170000
H        2.49530000      -2.48020000       2.27830000
