9
Properties=species:S:1:pos:R:3 gdb_1016=T pbc="F F F"
N        0.09900000      -1.10860000      -0.00480000
C        0.00990000       0.04450000       0.00280000
C       -0.09400000       1.45930000       0.01210000
N       -1.17450000       2.18100000       0.03060000
C       -0.71180000       3.48190000       0.03150000
C        0.64650000       3.47010000       0.01320000
O        1.05980000       2.17650000       0.00040000
H       -1.38450000       4.32400000       0.04520000
H        1.41750000       4.22110000       0.00700000
