15
Properties=species:S:1:pos:R:3 gdb_24828=T pbc="F F F"
N       -0.08690000       0.98740000      -1.04610000
C       -0.01310000       0.01770000      -0.21420000
C       -1.26840000      -0.46080000       0.35020000
C       -1.52070000      -1.44120000       1.22970000
N       -0.61770000      -2.28530000       1.85280000
C        0.74320000      -2.32650000       1.72670000
N        1.56480000      -1.63770000       1.03240000
C        1.34300000      -0.58420000       0.14610000
N        2.34290000      -0.04530000      -0.43970000
H        0.86540000       1.21230000      -1.35440000
H       -2.12760000       0.08600000      -0.02090000
H       -2.54460000      -1.64050000       1.52450000
H       -1.00900000      -2.96340000       2.48770000
H        1.16980000      -3.11090000       2.35520000
H        3.19640000      -0.51550000      -0.13380000
