21
Properties=species:S:1:pos:R:3 gdb_95505=T pbc="F F F"
C       -0.37370000       1.35970000       0.05840000
C        0.03190000      -0.10090000      -0.02440000
O        0.94680000      -0.22280000      -1.08540000
C        1.07970000      -1.50710000      -1.65240000
C        1.37540000      -2.65840000      -0.73160000
C        1.17530000      -2.78700000       0.57880000
C        0.59790000      -1.81360000       1.57760000
C        1.32480000      -1.89220000       2.92120000
O        0.62390000      -0.44580000       1.20150000
H        0.51480000       1.96790000       0.24630000
H       -0.82920000       1.67940000      -0.88150000
H       -1.08340000       1.50830000       0.87540000
H       -0.84510000      -0.74830000      -0.21140000
H        0.16950000      -1.76280000      -2.22900000
H        1.88770000      -1.41680000      -2.38740000
H        1.75660000      -3.52860000      -1.26550000
H        1.40860000      -3.75400000       1.02250000
H       -0.45640000      -2.11210000       1.74130000
H        2.37560000      -1.61560000       2.79720000
H        0.86560000      -1.20210000       3.63300000
H        1.27410000      -2.90490000       3.33100000
