17
Properties=species:S:1:pos:R:3 gdb_56839=T pbc="F F F"
O        0.59720000      -0.28480000      -1.14960000
C       -0.20330000       0.01860000      -0.00790000
C       -1.53220000      -0.59650000      -0.08920000
C       -2.59950000      -1.14690000      -0.14800000
C        0.50820000      -0.41320000       1.27630000
C        1.76030000       0.32680000       1.82250000
C        0.88450000       1.50650000       2.30950000
C        0.19600000       0.17150000       2.68290000
O        1.51630000      -0.33720000       3.12670000
H        0.59820000      -1.24280000      -1.25700000
H       -0.31700000       1.10660000      -0.03780000
H       -3.55080000      -1.61590000      -0.20850000
H        0.62560000      -1.50030000       1.30570000
H        2.78040000       0.32780000       1.44000000
H        1.29660000       2.05290000       3.15790000
H        0.41600000       2.16640000       1.57690000
H       -0.65950000      -0.01520000       3.33170000
