22
Properties=species:S:1:pos:R:3 gdb_106519=T pbc="F F F"
C        0.02870000       1.55450000      -0.12450000
C       -0.01470000       0.04430000       0.13070000
C       -1.40330000      -0.54510000      -0.00960000
C       -2.16050000      -0.57580000      -1.36560000
N       -2.85730000      -1.83250000      -0.89790000
C       -1.64940000      -2.07140000      -0.02180000
C       -3.96050000      -1.42900000      -0.00410000
C       -3.62900000      -0.13890000       0.79180000
O       -2.22840000       0.02410000       1.01220000
H        1.04040000       1.94770000       0.01100000
H       -0.28650000       1.79410000      -1.14620000
H       -0.63950000       2.07690000       0.56450000
H        0.65310000      -0.47960000      -0.56400000
H        0.34720000      -0.17330000       1.14310000
H       -2.80880000       0.25930000      -1.64130000
H       -1.50040000      -0.81210000      -2.20510000
H       -0.89540000      -2.64030000      -0.57520000
H       -1.85350000      -2.54940000       0.94020000
H       -4.86530000      -1.26240000      -0.60010000
H       -4.16290000      -2.27040000       0.66670000
H       -4.01390000       0.73800000       0.25220000
H       -4.10570000      -0.14370000       1.77690000
