18
Properties=species:S:1:pos:R:3 gdb_73999=T pbc="F F F"
C        0.30550000       1.26120000      -0.09170000
C       -0.32320000      -0.09870000      -0.04070000
C       -0.56780000      -0.88180000      -1.14690000
C        0.76010000      -1.30250000      -1.81620000
N        0.72900000      -2.46750000      -0.81880000
C        0.81480000      -2.21260000       0.61030000
C       -0.65850000      -2.36630000       0.84720000
C       -0.19060000      -0.96650000       1.10880000
C       -0.77320000      -2.33770000      -0.68180000
H        1.28110000       1.28380000       0.41150000
H        0.43500000       1.59370000      -1.12570000
H       -0.32460000       2.00620000       0.41040000
H        0.71050000      -1.73470000      -2.81930000
H        1.60900000      -0.61830000      -1.73990000
H        1.69230000      -2.40950000       1.20850000
H       -1.20480000      -2.98220000       1.54890000
H       -0.01190000      -0.64070000       2.12810000
H       -1.39020000      -3.03840000      -1.24280000
