20
Properties=species:S:1:pos:R:3 gdb_11861=T pbc="F F F"
O       -0.00710000       1.36330000      -0.26700000
C        0.01880000      -0.02780000       0.02150000
C       -1.41040000      -0.52360000       0.06680000
C       -2.20720000      -0.56270000      -1.27200000
C       -2.66870000      -1.97940000      -0.90350000
C       -4.09580000      -2.43420000      -0.80010000
C       -3.15840000      -3.07250000      -1.80260000
C       -1.62810000      -2.05890000       0.22290000
H        0.90020000       1.67500000      -0.33200000
H        0.57470000      -0.58470000      -0.75190000
H        0.51340000      -0.22790000       0.98700000
H       -1.95710000       0.03630000       0.83100000
H       -2.98280000       0.19510000      -1.40690000
H       -1.54500000      -0.54050000      -2.14470000
H       -4.38770000      -3.01720000       0.06820000
H       -4.87250000      -1.77450000      -1.17510000
H       -3.30270000      -2.84450000      -2.85430000
H       -2.81930000      -4.08610000      -1.61070000
H       -0.73940000      -2.63550000      -0.06060000
H       -1.97380000      -2.41280000       1.19820000
