23
Properties=species:S:1:pos:R:3 gdb_115901=T pbc="F F F"
C       -0.42940000       1.61240000       0.15750000
O       -0.20680000       0.26600000       0.50270000
C       -1.16440000      -0.64180000      -0.02600000
C       -1.01420000      -0.80080000      -1.56030000
C       -1.40730000      -2.20750000      -2.07570000
C       -1.16960000      -3.27820000      -0.99970000
C       -2.07150000      -2.96910000       0.22640000
C       -0.95860000      -1.98660000       0.67860000
C        0.04120000      -2.89060000      -0.09790000
H        0.30370000       2.21220000       0.70330000
H       -0.30090000       1.80180000      -0.91840000
H       -1.44070000       1.94350000       0.44510000
H       -2.17410000      -0.27020000       0.22280000
H       -1.56970000      -0.02620000      -2.09720000
H        0.04540000      -0.62620000      -1.77480000
H       -2.46270000      -2.23350000      -2.37410000
H       -0.82600000      -2.43090000      -2.97750000
H       -1.20400000      -4.28660000      -1.41970000
H       -3.07120000      -2.56310000       0.03550000
H       -2.15450000      -3.82250000       0.90470000
H       -0.79980000      -1.82340000       1.74630000
H        0.36520000      -3.73430000       0.51700000
H        0.91860000      -2.42820000      -0.55710000
