15
Properties=species:S:1:pos:R:3 gdb_3471=T pbc="F F F"
O       -0.02760000       1.40320000       0.12550000
C        0.03500000       0.00120000       0.02130000
C       -1.37730000      -0.61900000      -0.21070000
C       -1.21290000      -0.19970000      -1.70810000
C        0.24930000      -0.59880000      -1.40370000
O        0.18350000      -2.00820000      -1.14560000
C       -0.99120000      -2.09720000      -0.29580000
H        0.86710000       1.74790000       0.04150000
H        0.64980000      -0.44750000       0.81370000
H       -2.23630000      -0.34130000       0.39820000
H       -1.73940000      -0.77950000      -2.46950000
H       -1.34330000       0.87090000      -1.85190000
H        1.10220000      -0.37700000      -2.04490000
H       -0.71930000      -2.53980000       0.66940000
H       -1.75510000      -2.72240000      -0.77290000
