18
Properties=species:S:1:pos:R:3 gdb_62191=T pbc="F F F"
C       -0.01080000       1.54770000      -0.05370000
C       -0.01070000       0.01410000       0.02090000
O        0.70890000      -0.48210000       1.13440000
C        2.10950000      -0.57090000       0.93670000
C        2.69690000      -1.23520000       2.18590000
C        4.14370000      -1.37440000       2.09580000
C        5.33650000      -1.47560000       1.99210000
C       -1.38790000      -0.49980000       0.13190000
N       -2.47630000      -0.88040000       0.19230000
H        1.00980000       1.91690000      -0.18050000
H       -0.60860000       1.88870000      -0.90320000
H       -0.42920000       1.96570000       0.86460000
H        0.41120000      -0.39670000      -0.91060000
H        2.33620000      -1.17390000       0.04460000
H        2.56120000       0.42090000       0.79530000
H        2.42400000      -0.63600000       3.06250000
H        2.22360000      -2.21500000       2.31750000
H        6.39110000      -1.57340000       1.91650000
