19
Properties=species:S:1:pos:R:3 gdb_102928=T pbc="F F F"
C        0.21240000       0.72940000       0.66660000
O       -0.12670000      -0.54310000       0.11540000
C       -1.44620000      -0.79000000      -0.04500000
N       -1.63030000      -2.07690000      -0.51000000
C       -0.53910000      -2.87330000      -1.03540000
C        0.43050000      -3.32620000       0.05360000
O        1.54750000      -3.70530000      -0.17030000
N       -2.33220000       0.07370000       0.24210000
C       -3.72270000      -0.28410000       0.04770000
H        1.30110000       0.73710000       0.73190000
H       -0.14210000       1.53650000       0.02080000
H       -0.23570000       0.85440000       1.65560000
H       -2.55150000      -2.27130000      -0.86250000
H       -0.96850000      -3.78180000      -1.47470000
H        0.03840000      -2.36980000      -1.81970000
H       -0.00170000      -3.30520000       1.07890000
H       -4.35680000       0.55770000       0.33760000
H       -3.96380000      -0.51850000      -1.00360000
H       -4.02860000      -1.15010000       0.65640000
