16
Properties=species:S:1:pos:R:3 gdb_36192=T pbc="F F F"
N        0.01360000      -1.12910000      -0.32780000
C        0.08160000      -0.01900000      -0.01690000
C        0.16100000       1.39310000       0.36850000
C        1.51690000       1.98970000       0.13640000
O        2.59140000       1.61930000       0.99650000
C        3.32000000       2.74760000       0.42790000
C        3.62660000       2.28630000      -1.02030000
C        2.11500000       2.38420000      -1.22750000
C        1.97410000       3.39070000      -0.08290000
H       -0.58320000       1.95550000      -0.20640000
H       -0.10770000       1.48820000       1.42670000
H        4.06240000       3.16750000       1.10200000
H        4.15590000       3.05590000      -1.58740000
H        4.11860000       1.31540000      -1.12580000
H        1.54660000       2.33260000      -2.14740000
H        1.50580000       4.36140000       0.00220000
