16
Properties=species:S:1:pos:R:3 gdb_7064=T pbc="F F F"
O       -0.17770000       1.41640000       0.01140000
C       -0.03800000       0.01290000       0.00250000
C        0.67320000      -0.49250000      -1.27440000
C       -0.00260000      -0.09940000      -2.50270000
C       -0.56920000       0.21530000      -3.51420000
C        0.69740000      -0.50610000       1.26010000
C        0.04520000      -0.12630000       2.50520000
C       -0.50200000       0.17740000       3.53070000
H        0.70160000       1.81150000       0.00500000
H       -1.06250000      -0.37210000       0.01020000
H        1.70500000      -0.11070000      -1.27780000
H        0.75520000      -1.58640000      -1.23090000
H       -1.07000000       0.49960000      -4.40610000
H        0.77850000      -1.59950000       1.20320000
H        1.72910000      -0.12430000       1.24790000
H       -0.98570000       0.45210000       4.43490000
