17
Properties=species:S:1:pos:R:3 gdb_52863=T pbc="F F F"
C       -0.07950000       1.44410000      -0.08580000
C       -0.02290000      -0.00820000      -0.02940000
C        0.01840000      -1.21050000       0.01200000
C        0.08480000      -2.65210000       0.05740000
C       -0.50150000      -3.37120000       1.22030000
O       -1.19250000      -3.33960000      -0.01490000
C        1.16340000      -3.26510000      -0.68110000
C        2.07000000      -3.76380000      -1.29630000
C        3.15960000      -4.36840000      -2.04660000
H        0.69280000       1.84310000      -0.75230000
H       -1.05070000       1.78480000      -0.46090000
H        0.07040000       1.88890000       0.90410000
H       -0.07510000      -4.33240000       1.50350000
H       -0.93850000      -2.78330000       2.02610000
H        2.78210000      -5.11500000      -2.75380000
H        3.70900000      -3.61450000      -2.62080000
H        3.87280000      -4.86880000      -1.38260000
