18
Properties=species:S:1:pos:R:3 gdb_114591=T pbc="F F F"
O       -0.05750000       1.43980000      -0.23000000
C        0.08870000       0.05340000       0.04100000
C       -1.30160000      -0.55330000       0.01810000
C       -2.07770000      -0.68600000      -1.31590000
N       -2.32920000      -2.15980000      -1.10870000
C       -1.00130000      -2.77550000      -1.08150000
C       -1.44190000      -2.07660000       0.15530000
C       -1.72630000      -2.75650000       1.37510000
C       -1.94090000      -3.29760000       2.42840000
H        0.81600000       1.84180000      -0.23460000
H        0.73160000      -0.43190000      -0.70980000
H        0.54720000      -0.12180000       1.02780000
H       -1.91510000      -0.04830000       0.76750000
H       -3.02190000      -0.14190000      -1.33850000
H       -1.51550000      -0.46910000      -2.23040000
H       -1.03350000      -3.86000000      -1.05640000
H       -0.20550000      -2.35560000      -1.69420000
H       -2.14040000      -3.78350000       3.35120000
