24
Properties=species:S:1:pos:R:3 gdb_119977=T pbc="F F F"
C       -2.17580000       1.51570000       0.35660000
C       -2.00840000       0.00410000       0.52930000
C       -2.27730000      -0.78040000      -0.76410000
C       -2.03330000      -2.26590000      -0.57880000
C       -3.07270000      -3.20930000      -0.05460000
C       -4.46740000      -2.75830000       0.31470000
O       -4.41830000      -2.34000000       1.67580000
N       -2.59500000      -3.31530000      -1.43310000
C       -3.45580000      -2.99350000      -2.56160000
H       -1.98030000       2.04760000       1.29300000
H       -1.48740000       1.91000000      -0.39960000
H       -3.19360000       1.76880000       0.03790000
H       -0.98990000      -0.21400000       0.87700000
H       -2.68510000      -0.36750000       1.30660000
H       -3.29970000      -0.57870000      -1.09860000
H       -1.61980000      -0.41030000      -1.56340000
H       -1.00310000      -2.48110000      -0.29020000
H       -2.73710000      -4.02670000       0.58380000
H       -4.82060000      -1.94680000      -0.33390000
H       -5.16550000      -3.60170000       0.19060000
H       -5.31580000      -2.14480000       1.96170000
H       -4.11200000      -2.12020000      -2.43990000
H       -2.82520000      -2.81400000      -3.43870000
H       -4.08750000      -3.86100000      -2.78000000
