19
Properties=species:S:1:pos:R:3 gdb_119216=T pbc="F F F"
C       -0.15960000       0.78440000      -0.35560000
O       -0.09850000       0.39260000       1.00620000
C        0.96440000      -0.46750000       1.34150000
C        0.68440000      -1.94390000       1.05210000
C        1.03520000      -2.97090000       2.09880000
N       -0.34660000      -2.69520000       1.78060000
C       -1.17960000      -2.00730000       2.76290000
C        0.81190000      -2.33240000      -0.34060000
N        0.94870000      -2.62730000      -1.45050000
H       -0.43170000      -0.04440000      -1.01960000
H       -0.92590000       1.56000000      -0.42240000
H        0.80080000       1.20150000      -0.69250000
H        1.89150000      -0.17530000       0.82510000
H        1.12890000      -0.34270000       2.41470000
H        1.41920000      -3.94120000       1.79770000
H        1.44600000      -2.57680000       3.02880000
H       -0.62680000      -1.34930000       3.44800000
H       -1.92850000      -1.40920000       2.24050000
H       -1.68780000      -2.77010000       3.35970000
