15
Properties=species:S:1:pos:R:3 gdb_15963=T pbc="F F F"
N       -0.09550000      -1.05720000      -0.43640000
C       -0.08210000       0.07570000      -0.20700000
C       -0.04590000       1.49920000       0.07580000
C        0.01460000       1.94260000       1.56570000
O        1.21890000       2.69730000       1.33250000
C        1.31670000       2.20750000      -0.00350000
C        2.59620000       1.72470000      -0.59340000
C        1.92450000       2.99340000      -1.11030000
H       -0.82940000       2.00810000      -0.49080000
H       -0.81250000       2.57550000       1.89980000
H        0.16940000       1.12150000       2.27300000
H        3.48690000       1.84360000       0.01370000
H        2.57700000       0.83320000      -1.21180000
H        1.45100000       2.97190000      -2.08660000
H        2.37580000       3.94290000      -0.84290000
