19
Properties=species:S:1:pos:R:3 gdb_37562=T pbc="F F F"
C       -0.03830000       1.42000000      -0.17740000
C        1.40750000       2.02360000      -0.03700000
C        2.24000000       0.73960000      -0.09410000
C        3.11470000       0.05750000       0.99790000
C        1.98400000       0.05890000       2.06830000
C        2.11380000      -1.45370000       2.33360000
C        2.34260000      -1.33310000       0.81450000
C        1.30490000      -0.17370000       0.64970000
O       -0.01850000       0.04720000       0.31340000
H       -0.77950000       1.98230000       0.39860000
H       -0.35870000       1.39590000      -1.22540000
H        1.61260000       2.74660000      -0.82990000
H        1.50890000       2.53680000       0.92330000
H        2.46970000       0.43140000      -1.12040000
H        4.18260000       0.14290000       1.19370000
H        1.76730000       0.86100000       2.77390000
H        2.97750000      -1.76770000       2.92820000
H        1.21330000      -1.98420000       2.65540000
H        2.58820000      -2.09980000       0.07840000
