18
Properties=species:S:1:pos:R:3 gdb_70503=T pbc="F F F"
C       -0.07210000       1.54320000       0.03860000
C        0.03100000       0.03560000       0.01400000
C       -0.78640000      -0.81230000       0.97370000
C        0.71790000      -0.78940000       1.10850000
N        1.47850000      -1.79880000       0.41380000
C        1.21450000      -1.74220000      -0.92070000
C        0.43360000      -0.67400000      -1.25060000
C        0.08810000      -0.31340000      -2.60100000
O       -0.60330000       0.63300000      -2.93720000
H        0.86780000       2.00740000      -0.27820000
H       -0.85280000       1.87760000      -0.64780000
H       -0.30720000       1.90180000       1.04580000
H       -1.33350000      -0.27860000       1.74350000
H       -1.26830000      -1.71160000       0.60550000
H        1.19010000      -0.35390000       1.98210000
H        1.81030000      -2.63320000       0.86840000
H        1.62410000      -2.49120000      -1.58720000
H        0.51390000      -1.00240000      -3.36890000
