18
Properties=species:S:1:pos:R:3 gdb_26287=T pbc="F F F"
C       -0.00250000       1.44250000       0.03570000
N        0.01430000      -0.00040000      -0.11920000
C        1.27170000      -0.70420000       0.05330000
C       -1.16960000      -0.70240000      -0.03340000
C       -1.22320000      -2.11040000       0.02120000
N       -2.36460000      -2.79120000       0.06570000
C       -3.49100000      -2.07950000       0.06930000
N       -3.57620000      -0.74990000       0.04900000
C       -2.43160000      -0.07460000       0.00460000
H        1.00840000       1.82750000      -0.10550000
H       -0.64300000       1.91190000      -0.71930000
H       -0.35710000       1.76350000       1.02740000
H        1.37640000      -1.15730000       1.05130000
H        1.38230000      -1.50040000      -0.69140000
H        2.09490000      -0.00300000      -0.09040000
H       -0.31420000      -2.70350000       0.03120000
H       -4.42480000      -2.63350000       0.10040000
H       -2.51690000       1.00750000       0.00100000
