14
Properties=species:S:1:pos:R:3 gdb_13648=T pbc="F F F"
C       -0.14160000       1.48710000      -0.15460000
C       -0.02030000       0.00120000       0.04540000
O        1.26730000      -0.58330000      -0.12630000
C        0.69480000      -0.60890000       1.19440000
C        1.33120000       0.17760000       2.21080000
C        1.85480000       0.81010000       3.10120000
C        2.44440000       1.52690000       4.09440000
C        2.96730000       2.16310000       4.97780000
H        0.66920000       2.01690000       0.34970000
H       -0.10600000       1.72670000      -1.22210000
H       -1.09740000       1.84650000       0.24070000
H       -0.83130000      -0.59810000      -0.37400000
H        0.37780000      -1.60070000       1.51750000
H        3.42830000       2.72290000       5.75340000
