16
Properties=species:S:1:pos:R:3 gdb_27061=T pbc="F F F"
C       -0.01130000       1.52370000       0.04870000
C        0.01250000       0.03790000      -0.03060000
C        0.00980000      -0.82800000      -1.09520000
O       -0.01840000      -0.41540000      -2.39600000
C       -0.01720000      -1.34590000      -3.38650000
N       -0.04370000      -0.94610000      -4.58300000
N        0.03820000      -2.13500000      -0.70650000
C        0.05880000      -2.09070000       0.60970000
N        0.04460000      -0.81180000       1.06540000
H        0.87530000       1.92830000       0.55210000
H       -0.03440000       1.93120000      -0.96410000
H       -0.89460000       1.89840000       0.58030000
H        0.00740000      -2.37040000      -3.01250000
H       -0.03890000      -1.75090000      -5.20700000
H        0.08400000      -2.94530000       1.26800000
H        0.05540000      -0.52300000       2.02930000
