21
Properties=species:S:1:pos:R:3 gdb_106598=T pbc="F F F"
C       -0.16490000       1.47250000       0.20440000
C       -0.15420000      -0.05630000       0.09970000
C       -1.52020000      -0.64070000      -0.10620000
C       -2.60100000      -0.31710000      -1.17970000
C       -3.22750000      -1.21750000      -0.09060000
C       -4.65330000      -1.56790000       0.21570000
O       -4.74950000      -2.23530000       1.45960000
C       -1.97220000      -2.12280000      -0.12080000
O       -2.55360000      -0.37830000       0.94440000
H        0.83900000       1.85640000       0.40660000
H       -0.51920000       1.93110000      -0.72440000
H       -0.82700000       1.79660000       1.01180000
H        0.48420000      -0.38200000      -0.73120000
H        0.26930000      -0.49540000       1.01130000
H       -2.95690000       0.71400000      -1.18980000
H       -2.47020000      -0.73610000      -2.18080000
H       -5.25980000      -0.64790000       0.19700000
H       -5.04800000      -2.24530000      -0.54940000
H       -4.21980000      -1.72110000       2.08120000
H       -1.78480000      -2.70870000      -1.02450000
H       -1.77910000      -2.67800000       0.79750000
