11
Properties=species:S:1:pos:R:3 gdb_3831=T pbc="F F F"
N       -0.10590000       1.31350000       0.00860000
C        0.00870000       0.04000000       0.00090000
C       -1.20280000      -0.79220000       0.00340000
N       -1.20830000      -2.08060000      -0.00340000
N        0.02680000      -2.65780000      -0.01340000
C        1.17740000      -1.93600000      -0.01620000
N        1.23830000      -0.65120000      -0.00980000
H        0.82840000       1.73020000       0.00550000
H       -2.16920000      -0.29860000       0.01150000
H        0.02540000      -3.66430000      -0.01880000
H        2.09050000      -2.53080000      -0.02470000
