18
Properties=species:S:1:pos:R:3 gdb_54359=T pbc="F F F"
N        0.06660000       1.32110000       0.16780000
C        0.11790000      -0.00690000      -0.10650000
O        1.11280000      -0.56610000      -0.53420000
C       -1.20360000      -0.77510000       0.05850000
C       -1.93400000      -0.89460000      -1.34980000
C       -1.31470000      -2.30240000      -1.52410000
C       -0.98670000      -2.31810000      -0.01070000
C       -2.15870000      -0.29640000       1.12080000
O       -2.21500000       0.80690000       1.61490000
H        0.93780000       1.82580000       0.12190000
H       -0.69750000       1.67840000       0.72610000
H       -3.02140000      -0.92330000      -1.23030000
H       -1.68170000      -0.11470000      -2.07020000
H       -1.97520000      -3.08420000      -1.90410000
H       -0.40580000      -2.27140000      -2.12550000
H        0.01070000      -2.64940000       0.27440000
H       -1.73980000      -2.85090000       0.57810000
H       -2.90210000      -1.06990000       1.41660000
