19
Properties=species:S:1:pos:R:3 gdb_42409=T pbc="F F F"
O        0.07460000       0.01350000      -0.63700000
C        0.03090000       1.13620000      -0.19400000
O        1.10820000       1.80220000       0.28820000
C        2.34360000       1.11230000       0.22760000
C        3.33330000       1.54490000      -0.81140000
C        3.53440000       1.90740000       0.64840000
C       -1.19250000       1.96890000      -0.08870000
C       -2.23300000       1.80600000      -1.18450000
C       -2.50210000       1.24390000       0.17080000
H        2.25940000       0.06280000       0.47880000
H        3.96580000       0.78880000      -1.26230000
H        3.02600000       2.34170000      -1.47890000
H        3.35870000       2.93930000       0.92990000
H        4.31120000       1.40690000       1.21500000
H       -1.05320000       2.95050000       0.34490000
H       -2.75930000       2.70020000      -1.49740000
H       -1.98410000       1.10850000      -1.97540000
H       -2.43290000       0.16910000       0.28890000
H       -3.21900000       1.74090000       0.81390000
