18
Properties=species:S:1:pos:R:3 gdb_88905=T pbc="F F F"
C        0.32260000       1.52020000      -0.42200000
C        0.14530000       0.06000000      -0.06480000
C        1.31540000      -0.82320000       0.20800000
N        0.37870000      -0.48700000       1.27810000
C        0.85670000       0.40010000       2.33580000
C        1.47120000      -0.35250000       3.42300000
C        1.99720000      -0.95000000       4.33120000
C        2.61360000      -1.70350000       5.39080000
O        3.05390000      -1.22330000       6.41050000
H        1.25040000       1.94340000      -0.02950000
H        0.35110000       1.62840000      -1.51110000
H       -0.51360000       2.12510000      -0.05410000
H       -0.72420000      -0.39700000      -0.53510000
H        1.32630000      -1.86370000      -0.10460000
H        2.29500000      -0.34550000       0.22330000
H        1.58610000       1.15510000       1.99630000
H       -0.00180000       0.95690000       2.73380000
H        2.65850000      -2.79520000       5.19940000
