17
Properties=species:S:1:pos:R:3 gdb_68675=T pbc="F F F"
C        0.04350000       1.55650000       0.09240000
C        0.01140000       0.06070000      -0.06230000
C        0.67600000      -0.69130000      -1.26130000
C       -0.34400000      -1.83880000      -1.00350000
O        0.03320000      -2.62640000       0.13230000
C        0.83680000      -1.89130000       1.03440000
O        0.41620000      -0.55160000       1.18410000
C       -1.27850000      -0.71060000      -0.47720000
O       -2.44740000      -0.47350000      -0.49840000
H        1.06240000       1.90310000       0.28840000
H       -0.32900000       2.04180000      -0.81370000
H       -0.59100000       1.85680000       0.93070000
H        0.45490000      -0.18270000      -2.20320000
H        1.74060000      -0.91920000      -1.20970000
H       -0.65560000      -2.51400000      -1.80000000
H        0.74720000      -2.37040000       2.01230000
H        1.88690000      -1.92180000       0.70780000
