14
Properties=species:S:1:pos:R:3 gdb_30549=T pbc="F F F"
N       -0.10210000       1.32700000       0.00940000
C        0.01920000      -0.00880000       0.00100000
N        1.16210000      -0.65230000      -0.01050000
H        2.04190000      -0.15310000      -0.01360000
C        1.20670000      -2.05300000      -0.01890000
C        2.31270000      -2.84000000      -0.03100000
O        1.88610000      -4.11740000      -0.03520000
C        0.40610000      -4.05030000      -0.02500000
O       -0.21270000      -5.08080000      -0.02660000
N        0.04290000      -2.74500000      -0.01500000
H        0.68860000       1.94950000       0.00770000
H       -1.01720000       1.74070000       0.01820000
H       -0.86230000      -0.64090000       0.00330000
H        3.37250000      -2.63880000      -0.03700000
