21
Properties=species:S:1:pos:R:3 gdb_90722=T pbc="F F F"
C       -0.35710000       1.23220000      -0.29950000
C        0.30610000      -0.11530000      -0.09360000
O        1.68010000      -0.11310000      -0.57450000
C        2.18560000      -0.44650000       0.73200000
C        0.75570000      -0.46610000       1.34350000
C        0.89560000      -1.98460000       1.63970000
C        2.29670000      -1.95070000       0.99790000
C        2.93730000      -2.95480000       0.08960000
C        3.52740000      -2.68240000       1.45240000
H        0.19200000       2.02050000       0.22510000
H       -0.38200000       1.48380000      -1.36440000
H       -1.38680000       1.21440000       0.07500000
H       -0.27650000      -0.90760000      -0.58490000
H        3.01690000       0.19850000       1.03210000
H        0.41530000       0.19200000       2.14240000
H        0.91130000      -2.21620000       2.70880000
H        0.15150000      -2.62610000       1.15620000
H        2.42320000      -3.89840000      -0.06400000
H        3.45570000      -2.58020000      -0.78670000
H        4.45840000      -2.12640000       1.50750000
H        3.41360000      -3.43910000       2.22270000
