22
Properties=species:S:1:pos:R:3 gdb_12569=T pbc="F F F"
O       -0.16930000       1.50060000       0.13450000
C        0.00200000       0.08840000       0.00370000
C        0.81580000      -0.46990000       1.18390000
C        1.52070000      -1.82270000       0.95840000
C        0.74560000      -2.89790000       0.16850000
C       -0.77270000      -2.95830000       0.40820000
C       -1.56550000      -1.94930000      -0.43960000
C       -1.42260000      -0.47200000      -0.05500000
H        0.70170000       1.89600000       0.23890000
H        0.52510000      -0.13470000      -0.94310000
H        1.58570000       0.26640000       1.45110000
H        0.15030000      -0.52650000       2.05390000
H        2.47470000      -1.64890000       0.44560000
H        1.78550000      -2.22360000       1.94410000
H        0.91070000      -2.75150000      -0.90690000
H        1.19260000      -3.87100000       0.40240000
H       -1.12590000      -3.96410000       0.15190000
H       -0.99940000      -2.82230000       1.47440000
H       -1.27150000      -2.08150000      -1.49030000
H       -2.63140000      -2.20280000      -0.39370000
H       -1.88280000      -0.29590000       0.92620000
H       -1.98430000       0.13840000      -0.77050000
