23
Properties=species:S:1:pos:R:3 gdb_100632=T pbc="F F F"
C       -0.09290000       1.56280000      -0.04740000
C        0.06920000       0.03600000      -0.04020000
C        0.72420000      -0.42340000      -1.34900000
O       -0.16830000      -0.08950000      -2.40640000
C        0.79220000      -0.51340000       1.24040000
C        0.74930000      -2.06270000       1.27820000
C        2.26580000      -0.04780000       1.33480000
C        0.07050000      -0.03250000       2.42670000
C       -0.51380000       0.33080000       3.41320000
H        0.87800000       2.06990000      -0.08180000
H       -0.65380000       1.86450000      -0.93410000
H       -0.62450000       1.90850000       0.84150000
H       -0.93540000      -0.40610000      -0.03370000
H        1.69350000       0.08200000      -1.48340000
H        0.91250000      -1.50580000      -1.33740000
H        0.25960000      -0.30820000      -3.23900000
H        1.37470000      -2.49830000       0.49430000
H        1.11910000      -2.42530000       2.24100000
H       -0.27350000      -2.42860000       1.15020000
H        2.34470000       1.04150000       1.34440000
H        2.71920000      -0.42350000       2.25620000
H        2.84870000      -0.43120000       0.49170000
H       -1.03070000       0.65820000       4.28120000
