17
Properties=species:S:1:pos:R:3 gdb_72326=T pbc="F F F"
O       -0.10770000       1.40330000      -0.05340000
C       -0.05090000       0.01270000      -0.11450000
C        0.76520000      -0.63830000      -1.23830000
C        0.22750000      -2.05210000      -1.18300000
C       -0.87560000      -2.12490000      -0.42120000
C       -0.88700000      -2.95600000       0.83640000
O       -0.18530000      -2.01110000       1.70220000
C       -0.48800000      -0.69890000       1.23540000
C       -1.33790000      -0.74290000       0.02070000
H        0.73830000       1.72440000       0.27750000
H        0.60780000      -0.09110000      -2.17820000
H        1.84800000      -0.65070000      -1.05310000
H        0.84850000      -2.90940000      -1.42380000
H       -1.87810000      -3.16990000       1.25350000
H       -0.29430000      -3.87080000       0.78230000
H       -0.65090000       0.00310000       2.04690000
H       -2.34530000      -0.36300000      -0.10920000
