13
Properties=species:S:1:pos:R:3 gdb_3222=T pbc="F F F"
O        0.13570000       1.36970000       0.22140000
C        0.05970000      -0.01460000       0.05970000
C       -1.33940000      -0.63320000      -0.00760000
O       -1.94720000      -0.04800000      -1.17890000
C       -1.09330000      -1.20000000      -1.34540000
C        0.32750000      -0.63150000      -1.39700000
O        0.62520000       0.24070000      -2.44540000
H       -0.55290000       1.75540000      -0.33330000
H        0.70650000      -0.47070000       0.81300000
H       -2.00990000      -0.95990000       0.77840000
H       -1.53010000      -2.06510000      -1.83010000
H        1.10840000      -1.39530000      -1.37140000
H       -0.14460000       0.81000000      -2.56410000
