12
Properties=species:S:1:pos:R:3 gdb_7405=T pbc="F F F"
N       -0.01460000       1.27140000      -0.20260000
C        0.01640000      -0.01250000       0.23400000
O        0.93980000      -0.55790000       0.79700000
C       -1.31810000      -0.74600000       0.01050000
O       -2.37450000      -0.15490000       0.02340000
C       -1.24930000      -2.26450000      -0.23020000
N       -2.35100000      -2.91460000       0.22110000
O       -0.31260000      -2.75990000      -0.81680000
H        0.75350000       1.87840000       0.03520000
H       -0.89900000       1.67870000      -0.46010000
H       -3.15550000      -2.37690000       0.50030000
H       -2.47100000      -3.88430000      -0.02420000
