21
Properties=species:S:1:pos:R:3 gdb_93419=T pbc="F F F"
C       -0.07670000       1.61220000      -0.07740000
C       -0.02680000       0.07830000      -0.03050000
C        0.87180000      -0.47900000      -1.14620000
C        0.55950000      -1.92180000      -1.55730000
C        0.88490000      -3.04900000      -0.58640000
O        1.22480000      -4.13220000      -1.02900000
C        0.76640000      -2.90390000       0.88440000
C        0.57890000      -1.83280000       1.66780000
C        0.40660000      -0.37190000       1.37090000
H        0.92540000       2.04090000       0.04420000
H       -0.47530000       1.96440000      -1.03370000
H       -0.70920000       2.01700000       0.71980000
H       -1.04550000      -0.29730000      -0.20340000
H        0.74640000       0.14550000      -2.03840000
H        1.92740000      -0.38240000      -0.85810000
H       -0.51660000      -2.00290000      -1.77190000
H        1.07250000      -2.17970000      -2.48790000
H        0.91340000      -3.86460000       1.37220000
H        0.59250000      -2.03730000       2.73870000
H        1.36140000       0.12030000       1.62210000
H       -0.30560000       0.02980000       2.10460000
