21
Properties=species:S:1:pos:R:3 gdb_5954=T pbc="F F F"
C        0.19490000       1.52230000       0.00830000
C       -0.04530000       0.01040000       0.00250000
C       -1.52270000      -0.44650000       0.01430000
C       -2.24670000       0.02630000       1.28820000
C       -2.27090000       0.03980000      -1.24040000
N       -1.46790000      -1.92620000       0.00580000
C       -2.52840000      -2.77090000       0.01130000
O       -3.70220000      -2.45440000       0.02390000
H        1.26900000       1.73050000      -0.00090000
H       -0.24040000       2.00770000      -0.86970000
H       -0.22340000       1.99820000       0.89960000
H        0.43590000      -0.42310000      -0.88500000
H        0.45270000      -0.43250000       0.87600000
H       -2.33620000       1.11590000       1.30070000
H       -3.24880000      -0.40330000       1.32630000
H       -1.69860000      -0.28530000       2.18340000
H       -1.74020000      -0.26210000      -2.14930000
H       -3.27360000      -0.38940000      -1.26390000
H       -2.36050000       1.12950000      -1.23950000
H       -0.55450000      -2.35260000      -0.00530000
H       -2.19870000      -3.83090000       0.00220000
