23
Properties=species:S:1:pos:R:3 gdb_42112=T pbc="F F F"
C        0.01660000       1.53190000      -0.11740000
C        1.44110000       2.09880000      -0.01900000
C        2.25120000       1.66650000       1.21710000
C        1.59520000       1.94630000       2.54120000
C        1.17680000       1.01710000       3.40810000
C        1.24880000      -0.43640000       3.16860000
C        0.56620000      -1.11090000       2.23760000
C       -0.52890000      -0.57220000       1.34890000
C       -0.13680000      -0.00720000      -0.04980000
H       -0.60370000       1.98100000       0.66780000
H       -0.40570000       1.88460000      -1.06590000
H        2.00980000       1.80860000      -0.91220000
H        1.37390000       3.19450000      -0.04660000
H        2.47680000       0.59880000       1.14840000
H        3.21540000       2.19350000       1.18760000
H        1.50390000       2.99540000       2.82140000
H        0.80810000       1.33810000       4.38260000
H        1.92630000      -0.99520000       3.81550000
H        0.76420000      -2.17780000       2.14340000
H       -1.24040000      -1.39120000       1.19200000
H       -1.07590000       0.20880000       1.88800000
H       -0.93230000      -0.29230000      -0.74650000
H        0.77030000      -0.50130000      -0.41860000
