18
Properties=species:S:1:pos:R:3 gdb_113513=T pbc="F F F"
C        0.31570000       1.54700000       0.13560000
C       -0.21080000       0.14530000      -0.15560000
N        0.55510000      -0.47100000      -1.24020000
C        1.74440000      -1.22750000      -0.87620000
C        0.51170000      -1.91070000      -1.35150000
C       -0.36830000      -2.95620000      -0.66400000
O       -0.50510000      -3.64590000      -1.94610000
C        0.25700000      -2.70470000      -2.61520000
O        0.53740000      -2.67750000      -3.76720000
H        1.35620000       1.51280000       0.47370000
H        0.27140000       2.16700000      -0.76360000
H       -0.28000000       2.02340000       0.91970000
H       -0.18410000      -0.46570000       0.76420000
H       -1.25640000       0.19600000      -0.47950000
H        2.59810000      -1.12810000      -1.54020000
H        1.98130000      -1.34340000       0.18190000
H        0.11180000      -3.60070000       0.07510000
H       -1.33970000      -2.60980000      -0.30310000
