17
Properties=species:S:1:pos:R:3 gdb_34982=T pbc="F F F"
C       -0.35350000      -1.28390000      -0.23430000
C       -0.14960000      -0.12310000       0.00780000
C       -0.02170000       1.30280000       0.10320000
C        0.53730000       2.10200000       1.24460000
C        1.39260000       1.50550000       2.33120000
N        1.66700000       0.06150000       2.22000000
C        2.64690000       1.02370000       1.69000000
C        2.51490000       1.27350000       0.18940000
N        1.26260000       2.04060000      -0.04190000
H       -0.50580000      -2.32390000      -0.38430000
H       -0.80840000       1.80880000      -0.45670000
H        0.05490000       3.04790000       1.48110000
H        1.37850000       1.97430000       3.30890000
H        1.98180000      -0.29210000       3.12080000
H        3.61730000       1.11430000       2.16880000
H        3.34440000       1.89320000      -0.16450000
H        2.50880000       0.34130000      -0.38410000
