19
Properties=species:S:1:pos:R:3 gdb_116651=T pbc="F F F"
C       -0.48010000       0.82960000      -0.13770000
O        0.74260000       0.34500000      -0.68190000
C        0.69470000      -0.90790000      -1.17740000
N        1.74050000      -1.41340000      -1.67100000
C        1.72560000      -2.78680000      -2.17760000
C        2.06150000      -3.77390000      -1.05200000
C        0.39730000      -3.18470000      -2.84260000
N        0.44270000      -3.30160000      -4.19850000
O       -0.62750000      -3.37250000      -2.20660000
H       -1.27880000       0.83990000      -0.88900000
H       -0.80270000       0.23020000       0.72200000
H       -0.28560000       1.85100000       0.19170000
H       -0.28450000      -1.39540000      -1.11680000
H        2.52340000      -2.83740000      -2.92910000
H        1.22320000      -3.83010000      -0.35320000
H        2.24780000      -4.77620000      -1.45090000
H        2.95230000      -3.43290000      -0.51900000
H        1.26210000      -3.06230000      -4.72800000
H       -0.41410000      -3.49690000      -4.69120000
