15
Properties=species:S:1:pos:R:3 gdb_29208=T pbc="F F F"
C       -0.03280000       1.48820000       0.03860000
C       -0.00480000      -0.01350000       0.01180000
N       -0.02570000      -0.61610000      -1.14560000
C       -0.00180000      -2.00110000      -1.24040000
O       -0.01880000      -2.62480000      -2.28030000
N        0.04580000      -2.68890000      -0.01120000
C        0.06820000      -2.07810000       1.20620000
C        0.04380000      -0.72220000       1.26320000
O        0.06180000       0.02360000       2.41020000
H        0.85220000       1.87970000       0.55190000
H       -0.07010000       1.86910000      -0.98140000
H       -0.90010000       1.84630000       0.60370000
H        0.06310000      -3.69560000      -0.08310000
H        0.10500000      -2.71920000       2.08060000
H        0.09310000      -0.55760000       3.17720000
