21
Properties=species:S:1:pos:R:3 gdb_68407=T pbc="F F F"
C       -0.09750000       1.49440000       0.04580000
C        0.02180000      -0.00120000      -0.02220000
C        0.44400000      -0.80110000      -1.28310000
C       -0.44670000      -1.82860000      -0.55900000
C        0.36870000      -2.20820000       0.69240000
C        0.74120000      -0.75160000       1.14380000
C        2.24040000      -0.48040000       1.26730000
O        0.08270000      -0.35870000       2.34140000
O       -1.25800000      -0.72160000      -0.06920000
H        0.88990000       1.96200000      -0.02700000
H       -0.71740000       1.86820000      -0.77310000
H       -0.54860000       1.78810000       0.99690000
H       -0.03620000      -0.40200000      -2.17750000
H        1.49700000      -1.02840000      -1.46690000
H       -1.01370000      -2.60280000      -1.07570000
H       -0.25380000      -2.69690000       1.44480000
H        1.23640000      -2.83730000       0.47190000
H        2.78570000      -0.71440000       0.34910000
H        2.41960000       0.56820000       1.52310000
H        2.67170000      -1.09780000       2.06510000
H        0.51780000      -0.79960000       3.07800000
