13
Properties=species:S:1:pos:R:3 gdb_4617=T pbc="F F F"
O       -0.06080000       1.38170000       0.01060000
C        0.03760000       0.01970000       0.00280000
C        1.18870000      -0.67740000      -0.00790000
O        1.22360000      -2.03960000      -0.01530000
C        0.06180000      -2.80400000      -0.01230000
N        0.11760000      -4.07480000      -0.01940000
C       -1.18460000      -2.05920000      -0.00080000
C       -1.20260000      -0.71250000       0.00650000
H        0.82070000       1.76990000       0.00740000
H        2.18290000      -0.24690000      -0.01170000
H        1.08710000      -4.39250000      -0.02700000
H       -2.08860000      -2.65400000       0.00160000
H       -2.12960000      -0.14990000       0.01510000
