19
Properties=species:S:1:pos:R:3 gdb_67092=T pbc="F F F"
C       -0.05390000       1.51570000      -0.06290000
C       -0.06010000       0.01460000      -0.06010000
C        0.81720000      -0.95880000      -0.91200000
C        1.96620000      -0.95050000       0.15560000
C        0.66070000      -0.93110000       0.98130000
C       -0.16770000      -0.90320000       2.25010000
C       -1.41730000      -0.90380000       1.75540000
C       -1.27490000      -0.93510000       0.21450000
C       -0.06650000      -1.88200000      -0.02630000
H        0.96700000       1.91240000      -0.09250000
H       -0.58920000       1.91160000      -0.93320000
H       -0.54520000       1.90000000       0.83850000
H        0.92280000      -0.98150000      -1.99720000
H        2.57760000      -1.85610000       0.22010000
H        2.60000000      -0.05920000       0.19650000
H        0.16260000      -0.87770000       3.27830000
H       -2.34980000      -0.88610000       2.30310000
H       -2.18470000      -0.94470000      -0.38980000
H       -0.03960000      -2.97330000       0.02370000
