19
Properties=species:S:1:pos:R:3 gdb_87174=T pbc="F F F"
C       -2.09010000       0.13420000      -2.49320000
C       -2.62200000      -0.84750000      -1.47910000
O       -3.51880000      -1.62360000      -1.74480000
C       -1.95960000      -0.86850000      -0.10060000
C       -1.21160000      -2.17960000       0.08990000
O       -0.13150000      -2.35290000      -0.79300000
C       -1.13110000      -2.82720000       1.45640000
C       -2.00920000      -3.42020000       0.37650000
O       -3.38490000      -3.32420000       0.54640000
H       -2.64480000       0.06150000      -3.42900000
H       -2.13850000       1.15660000      -2.10190000
H       -1.03080000      -0.09250000      -2.66510000
H       -1.27830000      -0.02010000       0.02700000
H       -2.75190000      -0.79300000       0.64900000
H        0.63170000      -1.89420000      -0.42370000
H       -0.21470000      -3.35200000       1.70410000
H       -1.63240000      -2.34090000       2.28580000
H       -1.64280000      -4.32830000      -0.10220000
H       -3.73700000      -2.94110000      -0.27500000
