17
Properties=species:S:1:pos:R:3 gdb_17665=T pbc="F F F"
O       -0.19830000       1.41730000       0.31440000
C        0.01910000       0.03850000       0.14380000
C        0.92700000      -0.40950000      -1.03530000
O        1.71940000      -1.22670000      -0.15300000
C        1.10390000      -0.65080000       1.01540000
C       -1.32300000      -0.65490000       0.18310000
C       -2.41350000      -0.15810000       1.05470000
N       -2.50360000      -0.01950000      -0.41340000
H        0.64270000       1.87710000       0.22990000
H        0.46420000      -0.98810000      -1.84160000
H        1.50850000       0.41800000      -1.47080000
H        1.76440000       0.06510000       1.52750000
H        0.77150000      -1.41090000       1.73090000
H       -1.24920000      -1.72440000      -0.00470000
H       -3.11600000      -0.86090000       1.49330000
H       -2.22160000       0.73550000       1.63970000
H       -2.25730000       0.93890000      -0.65350000
