15
Properties=species:S:1:pos:R:3 gdb_127652=T pbc="F F F"
C        0.09160000       1.34480000       0.17100000
N        0.02890000      -0.09920000       0.07930000
N        0.10240000      -0.71680000      -1.12100000
C        0.01810000      -2.01440000      -0.84570000
C       -0.12250000      -2.26170000       0.53580000
C       -0.10870000      -0.99690000       1.08500000
O       -0.23620000      -0.55300000       2.37000000
C        0.56680000      -1.12860000       3.32270000
O        0.45920000      -0.85590000       4.47360000
H        1.07860000       1.70250000      -0.13470000
H       -0.66430000       1.78570000      -0.48230000
H       -0.10020000       1.63800000       1.20320000
H        0.05120000      -2.73360000      -1.65070000
H       -0.24780000      -3.19930000       1.05060000
H        1.28390000      -1.84000000       2.87960000
