21
Properties=species:S:1:pos:R:3 gdb_114440=T pbc="F F F"
O       -0.10050000       1.49450000      -0.02930000
C        0.03710000       0.08170000       0.06900000
C       -1.35070000      -0.52820000      -0.04310000
C       -2.07460000      -0.25150000      -1.39110000
C       -2.91010000      -1.51040000      -1.61990000
C       -2.19980000      -2.84850000      -1.77270000
C       -0.79510000      -2.78250000      -1.17580000
C       -1.40690000      -2.06170000       0.07670000
C       -2.82020000      -2.44600000      -0.44550000
H        0.77810000       1.88440000      -0.00970000
H        0.68720000      -0.30640000      -0.73130000
H        0.49470000      -0.20410000       1.03060000
H       -1.95710000      -0.10560000       0.76920000
H       -2.69990000       0.64290000      -1.33390000
H       -1.35530000      -0.08010000      -2.20070000
H       -3.85630000      -1.43450000      -2.14470000
H       -2.55150000      -3.58380000      -2.48770000
H       -0.42540000      -3.77800000      -0.91660000
H       -0.01640000      -2.25730000      -1.74100000
H       -1.09140000      -2.45130000       1.04550000
H       -3.64940000      -2.86530000       0.10860000
