11
Properties=species:S:1:pos:R:3 gdb_131990=T pbc="F F F"
N       -0.02240000       1.37910000       0.13390000
C        0.03450000       0.03240000       0.03900000
N       -1.01160000      -0.76680000       0.01400000
O       -0.48250000      -2.05340000      -0.03080000
N        0.85340000      -2.05850000      -0.03810000
C        1.19990000      -0.80120000       0.00140000
N        2.58010000      -0.38440000      -0.01510000
O        3.44970000      -1.23200000       0.00780000
O        2.75770000       0.83630000      -0.05590000
H        0.82740000       1.87770000      -0.07590000
H       -0.90490000       1.82610000      -0.05240000
