16
Properties=species:S:1:pos:R:3 gdb_24141=T pbc="F F F"
C       -0.37950000       1.05780000       0.05740000
C        1.13040000       0.99330000       0.18800000
C        0.35130000      -0.23920000      -0.12150000
O        0.29050000      -1.19400000       0.92790000
C       -0.82490000      -1.92270000       0.99900000
C       -1.60600000      -2.31400000       2.03420000
N       -2.59770000      -3.16240000       1.54610000
C       -2.37440000      -3.22720000       0.27860000
O       -1.30090000      -2.50240000      -0.14530000
H       -0.95130000       1.17570000       0.97080000
H       -0.81530000       1.52620000      -0.81770000
H        1.74780000       1.41960000      -0.59410000
H        1.54300000       1.06640000       1.18750000
H        0.41720000      -0.69020000      -1.10590000
H       -1.52250000      -2.05600000       3.07610000
H       -2.92270000      -3.76210000      -0.48010000
