17
Properties=species:S:1:pos:R:3 gdb_62224=T pbc="F F F"
O        0.53480000       1.80320000      -0.02720000
C        0.23850000       0.56900000      -0.61740000
C        1.37030000       0.17600000      -1.59160000
O        1.09140000      -1.06310000      -2.22680000
C        0.76670000      -0.98550000      -3.60420000
C       -0.50140000      -0.30930000      -3.88990000
C       -1.53790000       0.25350000      -4.12230000
C        0.05020000      -0.49640000       0.44240000
O        0.13470000      -0.22990000       1.61890000
H        0.52680000       1.63910000       0.93000000
H       -0.69790000       0.61640000      -1.19810000
H        1.49600000       0.98890000      -2.31600000
H        2.30810000       0.07300000      -1.03310000
H        1.57570000      -0.48950000      -4.16260000
H        0.72010000      -2.02240000      -3.95310000
H       -2.45400000       0.74820000      -4.33400000
H       -0.16230000      -1.51930000       0.08230000
