19
Properties=species:S:1:pos:R:3 gdb_104077=T pbc="F F F"
C       -0.01870000       1.53390000       0.02020000
C       -0.03120000      -0.00320000      -0.03940000
C       -1.48440000      -0.53460000      -0.03830000
O       -2.23140000      -0.08070000       1.06420000
C        0.79540000      -0.55290000      -1.22610000
C        1.97330000      -1.24370000      -0.58970000
C        1.92220000      -1.24720000       0.74860000
C        0.69250000      -0.57040000       1.19830000
O        0.27470000      -0.48770000       2.33930000
H        1.00510000       1.92100000       0.04860000
H       -0.51730000       1.95010000      -0.86160000
H       -0.54950000       1.88150000       0.90810000
H       -1.99820000      -0.18170000      -0.94110000
H       -1.45930000      -1.63770000      -0.08800000
H       -1.68430000      -0.23530000       1.84970000
H        0.22250000      -1.26480000      -1.83640000
H        1.11930000       0.23910000      -1.91150000
H        2.76060000      -1.69580000      -1.18420000
H        2.63170000      -1.69320000       1.43340000
