19
Properties=species:S:1:pos:R:3 gdb_117005=T pbc="F F F"
C       -0.00450000       1.60050000      -0.01820000
C        0.02990000       0.06200000      -0.04710000
C        0.69800000      -0.48380000      -1.22030000
C        1.25250000      -0.93440000      -2.19410000
C        1.91950000      -1.46530000      -3.36570000
O        2.03890000      -2.66020000      -3.55200000
C        2.45420000      -0.42860000      -4.33580000
C        3.14350000      -1.04290000      -5.54520000
O        3.58990000       0.03170000      -6.35970000
H        1.00800000       2.01250000      -0.02110000
H       -0.53300000       1.99440000      -0.89020000
H       -0.51670000       1.94990000       0.88270000
H        0.53180000      -0.31860000       0.85180000
H       -0.99220000      -0.33650000      -0.00770000
H        1.62530000       0.21560000      -4.65650000
H        3.14560000       0.23380000      -3.79920000
H        3.97750000      -1.67670000      -5.21210000
H        2.43860000      -1.69520000      -6.07990000
H        4.02840000      -0.34200000      -7.12940000
