19
Properties=species:S:1:pos:R:3 gdb_41297=T pbc="F F F"
C       -0.00830000       1.48570000       0.24340000
C        1.52260000       1.55530000      -0.14970000
C        1.26230000       0.23080000      -0.84770000
O        1.97380000      -0.97970000      -1.00270000
C        0.89930000      -1.65490000      -1.70900000
C        0.87980000      -0.89510000      -3.04670000
C        0.33880000       0.23180000      -2.16840000
C       -0.42800000      -0.78600000      -1.26480000
C        0.01360000      -0.07330000      -0.00330000
H       -0.23910000       1.76910000       1.27060000
H       -0.65350000       2.05390000      -0.42820000
H        1.87480000       2.39950000      -0.74820000
H        2.15760000       1.44390000       0.73400000
H        0.99020000      -2.73490000      -1.60850000
H        1.83840000      -0.78480000      -3.56000000
H        0.10900000      -1.26220000      -3.73070000
H       -0.06460000       1.17040000      -2.54090000
H       -1.39820000      -1.22610000      -1.50290000
H        0.13980000      -0.64220000       0.92030000
