25
Properties=species:S:1:pos:R:3 gdb_118960=T pbc="F F F"
C        0.01320000       1.48410000       0.41690000
C        0.03800000      -0.01810000       0.12100000
C       -1.36730000      -0.60510000      -0.06820000
C       -1.39910000      -2.13400000      -0.17260000
C       -0.61240000      -2.67210000      -1.36050000
O       -0.91480000      -2.72940000       1.07270000
C       -2.23220000      -3.18690000       1.42750000
C       -2.79840000      -2.80150000       0.04730000
C       -4.08890000      -1.99850000      -0.02380000
H        1.02520000       1.88090000       0.54580000
H       -0.46180000       2.04310000      -0.39750000
H       -0.54720000       1.69880000       1.33370000
H        0.64500000      -0.19710000      -0.77410000
H        0.52700000      -0.55310000       0.94290000
H       -1.98320000      -0.30390000       0.78750000
H       -1.84100000      -0.17180000      -0.95980000
H        0.44300000      -2.39360000      -1.29540000
H       -0.66950000      -3.76370000      -1.38960000
H       -1.01320000      -2.27760000      -2.30130000
H       -2.24200000      -4.25030000       1.69400000
H       -2.65560000      -2.61220000       2.26460000
H       -2.88720000      -3.68160000      -0.59710000
H       -4.07140000      -1.12610000       0.63570000
H       -4.28700000      -1.64690000      -1.04210000
H       -4.93890000      -2.62070000       0.27780000
