17
Properties=species:S:1:pos:R:3 gdb_99399=T pbc="F F F"
O        0.25390000       1.27040000       0.08130000
C        0.05080000      -0.11090000       0.00490000
C       -1.43110000      -0.43520000      -0.03610000
O       -2.28840000       0.41600000      -0.01570000
O       -1.66440000      -1.75180000      -0.09680000
C       -3.05060000      -2.14320000      -0.14880000
C       -3.08790000      -3.66530000      -0.21360000
C       -4.49690000      -4.19930000      -0.04950000
O       -5.03010000      -4.96310000      -0.80930000
H       -0.62940000       1.66780000       0.07330000
H        0.52010000      -0.53910000      -0.89390000
H        0.49350000      -0.63040000       0.86790000
H       -3.56260000      -1.76050000       0.74050000
H       -3.51930000      -1.68520000      -1.02460000
H       -2.66880000      -4.03920000      -1.15040000
H       -2.48710000      -4.05990000       0.61790000
H       -5.02420000      -3.83450000       0.86290000
