20
Properties=species:S:1:pos:R:3 gdb_96034=T pbc="F F F"
O       -0.17600000       1.49100000       0.52820000
C       -0.01180000       0.14340000       0.09080000
C        0.73990000      -0.71690000       1.12430000
C       -0.34080000      -1.23530000       2.11910000
C       -1.69940000      -0.76250000       1.54760000
C       -1.41360000      -0.48630000       0.05970000
C       -2.45660000       0.38640000      -0.66000000
C       -3.77700000      -0.23810000      -0.70120000
N       -4.81420000      -0.74760000      -0.72930000
H        0.69680000       1.87500000       0.65340000
H        0.47200000       0.12340000      -0.89690000
H        1.23570000      -1.55100000       0.61680000
H        1.52700000      -0.13480000       1.61420000
H       -0.30340000      -2.32650000       2.18280000
H       -0.18140000      -0.85750000       3.13160000
H       -2.50120000      -1.49010000       1.69190000
H       -2.00880000       0.17050000       2.02900000
H       -1.33020000      -1.44210000      -0.47250000
H       -2.53140000       1.35540000      -0.15810000
H       -2.13910000       0.58820000      -1.68970000
