16
Properties=species:S:1:pos:R:3 gdb_54799=T pbc="F F F"
C       -0.39450000       1.38760000       0.03500000
C        0.19190000      -0.00370000       0.13540000
O        0.62990000      -0.47390000       1.15920000
C        0.15930000      -0.80440000      -1.15850000
C        0.53490000      -2.28050000      -1.17100000
C       -0.42180000      -3.08710000      -0.41110000
N       -0.81540000      -2.68040000      -1.80240000
C       -1.21730000      -1.29740000      -1.68980000
O       -2.23570000      -0.76550000      -1.99880000
H        0.24740000       2.01740000      -0.59270000
H       -1.37370000       1.34580000      -0.45510000
H       -0.47760000       1.83180000       1.02730000
H        0.63440000      -0.23140000      -1.96280000
H        1.45000000      -2.68350000      -1.58470000
H       -0.25200000      -4.15600000      -0.34260000
H       -0.95280000      -2.65470000       0.43070000
