21
Properties=species:S:1:pos:R:3 gdb_80405=T pbc="F F F"
C        0.01190000       1.64680000       0.07880000
C        0.05000000       0.13860000       0.08040000
C        1.30800000      -0.66460000      -0.19870000
O        2.53560000       0.01290000      -0.08260000
C        2.88530000      -0.01220000       1.30930000
C        3.66770000      -1.28610000       1.63590000
C        3.64720000       1.25450000       1.65290000
O        1.62960000      -0.00840000       2.00510000
C        0.71130000      -0.67840000       1.17620000
H        0.93260000       2.06720000       0.48350000
H       -0.11590000       2.02970000      -0.93890000
H       -0.82250000       2.01350000       0.68550000
H       -0.84550000      -0.34030000      -0.31300000
H        1.31030000      -1.50730000      -0.88240000
H        4.60400000      -1.31160000       1.07190000
H        3.89530000      -1.32830000       2.70450000
H        3.07900000      -2.16840000       1.37130000
H        3.05150000       2.13420000       1.40330000
H        3.87680000       1.27400000       2.72120000
H        4.58420000       1.29070000       1.09170000
H        0.21950000      -1.53260000       1.63020000
