13
Properties=species:S:1:pos:R:3 gdb_1431=T pbc="F F F"
C        0.04770000       1.43320000       0.00920000
C        0.02740000      -0.01920000       0.00090000
C       -0.00580000      -1.22570000      -0.00570000
C       -0.05410000      -2.67600000      -0.01370000
O       -1.08940000      -3.29880000      -0.00980000
C        1.32110000      -3.33520000      -0.02740000
O        1.17610000      -4.72870000      -0.03440000
H        1.07130000       1.82140000      -0.00460000
H       -0.47920000       1.83300000      -0.86400000
H       -0.45130000       1.82240000       0.90330000
H        1.85720000      -2.95040000      -0.91250000
H        1.87000000      -2.96060000       0.85420000
H        2.05450000      -5.11950000      -0.04300000
