18
Properties=species:S:1:pos:R:3 gdb_113743=T pbc="F F F"
C        0.07130000       0.97540000      -0.34890000
O       -0.42740000      -0.13340000       0.39030000
C        0.48000000      -0.61330000       1.32370000
C        0.24570000      -1.99940000       1.82520000
C        1.44290000      -1.71980000       0.93380000
C        1.43120000      -2.23500000      -0.49050000
O        2.24680000      -1.47660000      -1.37260000
C        1.81480000      -3.66320000      -0.53230000
N        2.14890000      -4.76920000      -0.55790000
H        0.96440000       0.70060000      -0.92240000
H       -0.72420000       1.28280000      -1.03080000
H        0.31350000       1.81600000       0.31760000
H        0.85130000       0.13760000       2.02270000
H        0.41720000      -2.22200000       2.87140000
H       -0.58480000      -2.53560000       1.37810000
H        2.42250000      -1.72510000       1.40540000
H        0.41600000      -2.14010000      -0.88740000
H        3.16110000      -1.54710000      -1.07430000
