19
Properties=species:S:1:pos:R:3 gdb_102416=T pbc="F F F"
C       -0.41270000      -0.52080000       0.95690000
N        0.21450000       0.09340000      -0.20380000
C        0.77970000      -0.64690000      -1.21260000
O        0.50040000      -1.95960000      -1.07230000
C        0.95130000      -2.81460000      -2.12160000
N        1.46240000      -0.22800000      -2.20990000
C        1.64570000       1.20820000      -2.36300000
C        2.42880000       1.85670000      -1.30080000
C        3.04530000       2.36930000      -0.40290000
H       -1.20490000      -1.20070000       0.63920000
H        0.29150000      -1.08700000       1.58070000
H       -0.85950000       0.27040000       1.56390000
H        0.68920000       0.96750000      -0.03070000
H        0.52830000      -2.50890000      -3.08200000
H        2.04100000      -2.79080000      -2.20110000
H        0.60760000      -3.81400000      -1.85010000
H        2.15510000       1.37980000      -3.31800000
H        0.67550000       1.72860000      -2.43530000
H        3.61530000       2.82490000       0.36870000
