15
Properties=species:S:1:pos:R:3 gdb_29301=T pbc="F F F"
O        0.57020000       1.26220000      -0.69020000
C        0.26080000       0.02900000      -0.23450000
C       -0.84370000      -0.71790000      -0.56120000
N       -0.69120000      -1.88310000       0.17360000
C        0.46500000      -1.78310000       0.87150000
N        1.07020000      -0.62870000       0.64660000
C        0.92880000      -2.85670000       1.76930000
C        0.09000000      -3.36960000       2.86980000
O        0.21810000      -4.09520000       1.64470000
H        1.40840000       1.49910000      -0.27550000
H       -1.67470000      -0.54430000      -1.22050000
H       -1.26140000      -2.71200000       0.13890000
H        2.00960000      -2.93910000       1.86450000
H        0.56310000      -3.83060000       3.73530000
H       -0.88420000      -2.91780000       3.04710000
