17
Properties=species:S:1:pos:R:3 gdb_33748=T pbc="F F F"
C        0.02240000      -1.15160000      -0.03250000
C        0.01290000       0.05110000      -0.00510000
C       -0.00470000       1.48200000       0.00820000
C       -0.68710000       2.44410000       1.05000000
C       -0.03120000       3.40070000       0.00330000
C        1.21620000       2.46730000       0.04580000
C       -0.57880000       2.44460000      -1.06320000
C       -0.70200000       2.41450000      -2.50990000
O       -1.85710000       2.41820000      -1.62360000
H        0.02830000      -2.21330000      -0.05320000
H       -1.77710000       2.41900000       1.08480000
H       -0.24090000       2.44340000       2.04710000
H       -0.04540000       4.48860000      -0.00110000
H        1.77780000       2.46790000       0.98190000
H        1.87330000       2.46360000      -0.82670000
H       -0.57240000       3.32360000      -3.09450000
H       -0.54780000       1.48220000      -3.05020000
