19
Properties=species:S:1:pos:R:3 gdb_36032=T pbc="F F F"
C       -0.03160000      -1.35310000      -0.17430000
C       -0.05070000      -0.15140000      -0.19520000
C       -0.06960000       1.30560000      -0.21600000
C        1.28610000       1.97770000       0.02910000
C        2.27130000       1.38170000       0.99770000
C        2.55300000       1.34030000      -0.48580000
C        1.18250000       3.47460000      -0.05360000
C        0.99920000       4.32600000       1.13120000
O        2.26480000       4.24050000       0.46740000
H       -0.02430000      -2.41490000      -0.15920000
H       -0.46310000       1.64120000      -1.18630000
H       -0.78510000       1.66380000       0.53740000
H        2.85710000       2.07060000       1.59470000
H        1.99700000       0.45280000       1.48430000
H        2.47000000       0.38490000      -0.99120000
H        3.32290000       2.00180000      -0.86730000
H        0.79710000       3.85160000      -1.00460000
H        0.49210000       5.28520000       1.04120000
H        0.96280000       3.86400000       2.11630000
