11
Properties=species:S:1:pos:R:3 gdb_130801=T pbc="F F F"
O       -0.00080000      -0.03160000       0.35950000
C       -0.02670000       1.14830000       0.17210000
O       -1.12240000       1.96480000       0.12060000
N       -0.67730000       3.29000000      -0.11040000
N        0.56850000       3.28940000      -0.19380000
N        1.02670000       2.02980000      -0.03130000
C        2.42970000       1.68030000      -0.07690000
C        2.99250000       1.73710000      -1.43130000
N        3.45000000       1.78390000      -2.48970000
H        2.99660000       2.34070000       0.58530000
H        2.49610000       0.65790000       0.30850000
