25
Properties=species:S:1:pos:R:3 gdb_103769=T pbc="F F F"
C        0.19490000       1.44600000       0.28540000
C       -0.19350000       0.03500000      -0.17510000
C        0.60300000      -0.47740000      -1.36760000
C        0.40440000       0.28880000      -2.66300000
C        1.97750000      -1.06020000      -1.09510000
C        0.83160000      -1.96370000      -1.46750000
C        0.26790000      -3.09380000      -0.58940000
C        0.53820000      -4.07930000      -1.76400000
C        0.77940000      -2.86730000      -2.71100000
H        1.25940000       1.49730000       0.53830000
H        0.00170000       2.19430000      -0.48960000
H       -0.37570000       1.73810000       1.17270000
H       -0.06690000      -0.65940000       0.66370000
H       -1.26410000       0.01650000      -0.42350000
H        0.73780000       1.32850000      -2.57390000
H        0.96580000      -0.16470000      -3.48500000
H       -0.65340000       0.30470000      -2.95390000
H        2.76150000      -0.89820000      -1.82970000
H        2.33050000      -1.08240000      -0.06740000
H        0.78640000      -3.29830000       0.35150000
H       -0.79960000      -2.97580000      -0.37470000
H        1.44470000      -4.66920000      -1.60830000
H       -0.27440000      -4.75800000      -2.03210000
H       -0.08130000      -2.65680000      -3.35490000
H        1.67540000      -2.90490000      -3.33670000
