18
Properties=species:S:1:pos:R:3 gdb_11414=T pbc="F F F"
C        0.05390000       1.51670000       0.10900000
C       -0.02750000      -0.01070000       0.04600000
C       -1.46050000      -0.54650000      -0.10800000
C       -1.52600000      -2.09630000      -0.07950000
N       -1.77130000      -2.35540000       1.33070000
C       -2.40100000      -1.27070000       1.93140000
O       -2.90050000      -1.23980000       3.03350000
N       -2.34090000      -0.23070000       1.01250000
H        1.09310000       1.85160000       0.17350000
H       -0.38940000       1.97650000      -0.78170000
H       -0.46680000       1.91540000       0.98640000
H        0.55920000      -0.37090000      -0.80880000
H        0.41920000      -0.45140000       0.94550000
H       -1.88580000      -0.16380000      -1.04320000
H       -2.34060000      -2.46260000      -0.72010000
H       -0.58900000      -2.54700000      -0.42050000
H       -2.04350000      -3.27060000       1.65170000
H       -2.41760000       0.70610000       1.37430000
