17
Properties=species:S:1:pos:R:3 gdb_48430=T pbc="F F F"
O        0.31990000       0.25770000      -1.31970000
C        0.13550000       0.80270000      -0.25830000
C        0.99050000       1.89340000       0.29060000
C        2.43630000       1.96980000      -0.17730000
C        1.44100000       2.95770000      -0.69360000
O        0.61800000       2.34690000       1.55760000
C        1.05130000       1.53900000       2.65140000
C        2.38280000       1.88830000       3.15040000
C        3.46240000       2.17920000       3.59110000
H       -0.72500000       0.54020000       0.39800000
H        3.15740000       2.30440000       0.55650000
H        2.75390000       1.17300000      -0.84030000
H        1.08530000       2.85240000      -1.71180000
H        1.46710000       3.96460000      -0.29420000
H        0.31470000       1.69670000       3.44650000
H        1.02170000       0.47300000       2.38660000
H        4.41880000       2.43250000       3.97800000
