15
Properties=species:S:1:pos:R:3 gdb_128281=T pbc="F F F"
C        0.02140000       1.41740000       0.09240000
N        0.11020000      -0.02370000      -0.03020000
C        0.62890000      -0.63490000      -1.09560000
N        1.09610000       0.02580000      -2.12090000
C        1.58750000      -0.75570000      -3.13150000
N        1.66570000      -2.03940000      -3.23220000
O        1.15700000      -2.75210000      -2.10870000
C        0.63760000      -2.11760000      -1.03520000
N        0.17590000      -2.72170000      -0.01680000
H        1.01700000       1.87310000       0.10910000
H       -0.52690000       1.84300000      -0.75330000
H       -0.49970000       1.65830000       1.01960000
H       -0.21130000      -0.64100000       0.70220000
H        1.98160000      -0.23410000      -3.99980000
H        0.24800000      -3.73460000      -0.11510000
