21
Properties=species:S:1:pos:R:3 gdb_116378=T pbc="F F F"
O       -0.01350000       1.47970000      -0.19470000
C        0.05130000       0.07700000       0.01710000
C       -1.37570000      -0.47570000       0.05320000
C       -2.06630000      -0.27040000      -1.30060000
O       -3.47610000      -0.29490000      -1.19070000
C       -4.07790000      -1.56370000      -1.27430000
C       -3.73750000      -2.57700000      -0.21110000
C       -2.63430000      -2.72120000       0.52320000
C       -1.34820000      -1.93570000       0.52440000
H        0.88220000       1.81210000      -0.30110000
H        0.62100000      -0.42000000      -0.78690000
H        0.55960000      -0.15680000       0.96610000
H       -1.94160000       0.12310000       0.77720000
H       -1.80790000       0.72290000      -1.67650000
H       -1.71730000      -1.01620000      -2.03560000
H       -5.15660000      -1.37150000      -1.24490000
H       -3.87270000      -2.01760000      -2.26400000
H       -4.52060000      -3.32310000      -0.07800000
H       -2.61670000      -3.57240000       1.20250000
H       -0.62230000      -2.49270000      -0.09270000
H       -0.93010000      -1.96600000       1.53920000
