17
Properties=species:S:1:pos:R:3 gdb_41773=T pbc="F F F"
C        0.03840000       1.40960000      -0.20550000
C        1.51690000       1.84260000       0.04110000
N        2.15360000       0.54580000       0.26320000
C        3.39190000       0.33210000       0.84830000
C        3.76470000      -0.91410000       1.15380000
C        2.81420000      -2.01610000       0.79600000
O        1.42900000      -1.59960000       0.90590000
C        1.11960000      -0.38570000       0.44720000
N       -0.06820000       0.00590000       0.21340000
H       -0.66480000       2.03370000       0.35400000
H       -0.22750000       1.49830000      -1.26610000
H        1.96060000       2.36530000      -0.81100000
H        1.61940000       2.48120000       0.92890000
H        3.99110000       1.21540000       1.03810000
H        4.70660000      -1.13510000       1.63520000
H        2.97210000      -2.37600000      -0.23210000
H        2.89920000      -2.87340000       1.46680000
