17
Properties=species:S:1:pos:R:3 gdb_41981=T pbc="F F F"
C        0.02570000       1.57170000       0.00450000
O        1.37410000       1.99620000      -0.22500000
C        2.02350000       0.99460000      -0.97120000
C        2.55460000      -0.22340000      -0.24750000
O        2.67850000      -0.36750000       1.13270000
C        1.54130000      -0.03160000       1.90750000
O        0.33390000      -0.48360000       1.35760000
C        0.07250000       0.03680000       0.05180000
C        1.20690000      -0.28290000      -0.92650000
H       -0.32810000       2.01850000       0.93770000
H       -0.62300000       1.90350000      -0.81960000
H        2.51830000       1.35440000      -1.86880000
H        3.37610000      -0.74050000      -0.73390000
H        1.66190000      -0.55430000       2.85910000
H        1.51900000       1.05380000       2.07420000
H       -0.87510000      -0.41450000      -0.24640000
H        1.02050000      -0.92540000      -1.77790000
