15
Properties=species:S:1:pos:R:3 gdb_51247=T pbc="F F F"
N        0.02930000       1.09340000      -0.03680000
H        0.18360000       0.37490000      -0.72620000
H        0.79260000       1.27810000       0.59260000
C       -1.22230000       1.43360000       0.34070000
N       -2.31000000       0.92530000      -0.20090000
C       -3.56090000       1.54500000      -0.08500000
C       -4.80000000       0.96180000       0.23780000
C       -5.76860000       1.99080000       0.21000000
O       -6.94940000       2.10660000       0.42880000
O       -5.00820000       3.22070000      -0.17880000
C       -3.72580000       2.89060000      -0.33370000
H       -3.06160000       3.59680000      -0.81180000
H       -1.35530000       2.23550000       1.05540000
H       -2.25930000       0.03790000      -0.69380000
H       -4.99580000      -0.03730000       0.58930000
