22
Properties=species:S:1:pos:R:3 gdb_90174=T pbc="F F F"
C       -0.07190000       1.58600000       0.00850000
C        0.01140000       0.05920000       0.00430000
C        0.80880000      -0.52450000      -1.21220000
C        1.37670000      -1.81940000      -0.68600000
C        2.79070000      -2.43170000      -0.66730000
C        2.71690000      -2.44010000       0.90630000
C        1.30710000      -1.82740000       0.79910000
C        0.69180000      -0.53790000       1.28360000
N        0.49210000      -2.77690000       0.01160000
H        0.92710000       2.03450000       0.05780000
H       -0.56090000       1.96000000      -0.89720000
H       -0.64370000       1.95050000       0.86850000
H       -1.01600000      -0.32280000      -0.04600000
H        0.17610000      -0.61540000      -2.10300000
H        1.63470000       0.14890000      -1.47640000
H        2.89350000      -3.40020000      -1.16220000
H        3.55600000      -1.74900000      -1.04450000
H        2.77340000      -3.41390000       1.39820000
H        3.44310000      -1.76190000       1.36080000
H        1.48890000       0.13220000       1.63120000
H       -0.02150000      -0.63810000       2.11030000
H       -0.46600000      -2.43810000      -0.03160000
