17
Properties=species:S:1:pos:R:3 gdb_126047=T pbc="F F F"
C        1.01430000       1.12150000      -0.66600000
C        0.07940000       0.12030000      -0.03780000
N        0.65940000      -1.11730000       0.50150000
C        0.02690000      -0.16640000       1.43310000
C        0.94210000       0.45180000       2.41000000
N        0.63850000       1.32890000       3.35400000
C        1.83980000       1.54570000       3.95860000
N        2.85890000       0.86530000       3.45840000
N        2.26000000       0.16980000       2.46330000
H        1.94480000       1.20630000      -0.10070000
H        1.26370000       0.82200000      -1.68920000
H        0.54540000       2.10990000      -0.70500000
H       -0.88220000       0.02220000      -0.54020000
H        0.05640000      -1.91750000       0.33670000
H       -0.95300000      -0.39730000       1.84230000
H        1.96600000       2.22200000       4.79090000
H        2.76520000      -0.48860000       1.89200000
