19
Properties=species:S:1:pos:R:3 gdb_40064=T pbc="F F F"
C        0.11140000       1.50580000      -0.01160000
O        1.23860000       0.61500000      -0.00790000
C       -0.07580000       0.05820000       0.01540000
C       -0.50090000      -0.78740000       1.22970000
C       -1.15580000      -2.01400000       0.54380000
C       -2.44350000      -1.52970000      -0.14030000
O       -1.97290000      -0.69600000      -1.21850000
C       -0.53720000      -0.76470000      -1.18540000
C       -0.25800000      -2.19320000      -0.70440000
H       -0.02450000       2.08540000       0.90080000
H       -0.04660000       2.05750000      -0.93770000
H        0.38590000      -1.07160000       1.80400000
H       -1.18760000      -0.26160000       1.89940000
H       -1.28970000      -2.88280000       1.18840000
H       -3.03620000      -2.35790000      -0.55070000
H       -3.08550000      -0.94030000       0.52560000
H       -0.14150000      -0.44330000      -2.14830000
H        0.79370000      -2.36810000      -0.46430000
H       -0.61560000      -2.95500000      -1.40100000
