19
Properties=species:S:1:pos:R:3 gdb_58848=T pbc="F F F"
C       -0.04090000       1.58720000       0.25990000
C        0.01990000       0.06540000       0.04390000
C        0.91230000      -0.61970000       1.08640000
C       -1.37960000      -0.50260000      -0.00290000
C       -2.23600000      -0.95200000       1.19920000
C       -1.99620000      -1.87910000       0.06530000
O       -2.93530000      -1.56560000      -1.00360000
C       -2.34280000      -0.31730000      -1.15410000
O       -2.56790000       0.49450000      -1.99240000
H        0.96130000       2.02440000       0.21030000
H       -0.66260000       2.06350000      -0.50290000
H       -0.46510000       1.82340000       1.24220000
H        0.46360000      -0.11340000      -0.94510000
H        0.56390000      -0.42270000       2.10610000
H        0.94870000      -1.70450000       0.94090000
H        1.93530000      -0.23920000       1.01270000
H       -1.66580000      -1.13680000       2.10440000
H       -3.23190000      -0.54930000       1.35430000
H       -1.56810000      -2.87120000       0.07020000
