19
Properties=species:S:1:pos:R:3 gdb_91103=T pbc="F F F"
O       -0.28540000       1.37530000      -0.18210000
C       -0.00150000      -0.00090000      -0.08010000
C        0.36130000      -0.48980000       1.38620000
C       -0.16610000      -1.94150000       1.48170000
C       -1.64810000      -2.44270000       1.43780000
C       -2.88090000      -1.53970000       1.34050000
C       -2.40540000      -0.48870000       0.35170000
C       -1.23910000      -0.85110000      -0.20160000
C       -0.85340000      -2.26400000       0.18530000
H        0.52900000       1.86150000      -0.02280000
H        0.79770000      -0.29330000      -0.77830000
H        1.44250000      -0.47620000       1.57150000
H       -0.11180000       0.20850000       2.08410000
H        0.49950000      -2.66940000       1.93690000
H       -1.77050000      -3.43600000       1.86180000
H       -3.76090000      -2.12430000       1.03430000
H       -3.15040000      -1.04930000       2.28540000
H       -2.76070000       0.53490000       0.38180000
H       -0.56810000      -3.02660000      -0.53070000
