22
Properties=species:S:1:pos:R:3 gdb_89987=T pbc="F F F"
C       -0.25460000       1.48680000       0.14030000
C        0.06790000      -0.00460000       0.05850000
N        1.16790000      -0.41400000      -0.85110000
C        1.56150000       0.38220000      -1.98830000
C        2.10100000      -0.60640000       0.26530000
C        0.90470000      -0.57440000       1.23990000
C        0.96450000       0.01590000       2.65900000
C        0.50830000      -1.38410000       3.11010000
O        0.46880000      -1.85130000       1.74630000
H        0.62350000       2.08700000       0.40230000
H       -0.64200000       1.85750000      -0.81410000
H       -1.02470000       1.66680000       0.89750000
H       -0.85250000      -0.57540000      -0.12020000
H        1.90330000       1.40360000      -1.73570000
H        2.38260000      -0.11930000      -2.51270000
H        0.72740000       0.46900000      -2.69310000
H        2.67400000      -1.54050000       0.23920000
H        2.79560000       0.23700000       0.42970000
H        1.96100000       0.31730000       2.98850000
H        0.26300000       0.82750000       2.85930000
H        1.22730000      -1.94850000       3.71600000
H       -0.47690000      -1.43670000       3.58870000
