14
Properties=species:S:1:pos:R:3 gdb_15928=T pbc="F F F"
N       -0.05950000      -1.16660000      -0.13140000
C       -0.02530000      -0.01550000      -0.02880000
C        0.04240000       1.42960000       0.06300000
C       -0.46680000       2.28570000      -1.12500000
N        0.70240000       3.20010000      -0.97330000
C        1.33200000       2.31140000       0.02760000
C        0.93870000       2.68910000       1.46400000
O       -0.31100000       1.94670000       1.35450000
H       -0.48470000       1.72400000      -2.06540000
H       -1.43780000       2.75980000      -0.95760000
H        1.24520000       3.29450000      -1.82250000
H        2.33890000       1.94920000      -0.17700000
H        1.57460000       2.26290000       2.24840000
H        0.77170000       3.75570000       1.63480000
