21
Properties=species:S:1:pos:R:3 gdb_72528=T pbc="F F F"
C        0.01470000       1.51970000       0.07260000
C       -0.02540000       0.00530000      -0.03540000
C        0.69940000      -0.53510000      -1.29380000
C        0.67300000      -2.08680000      -1.25430000
C       -0.07450000      -2.53290000       0.03050000
C        0.68550000      -1.91620000       1.22560000
O        0.70840000      -0.49760000       1.11330000
C       -1.44790000      -1.91070000       0.02190000
C       -1.42230000      -0.57790000      -0.01160000
H        1.04860000       1.87500000       0.08460000
H       -0.50240000       1.97790000      -0.77620000
H       -0.47090000       1.84890000       0.99580000
H        0.21640000      -0.14870000      -2.19650000
H        1.72730000      -0.15890000      -1.28290000
H        0.17300000      -2.49800000      -2.13530000
H        1.69000000      -2.49300000      -1.24080000
H       -0.09750000      -3.62160000       0.11910000
H        0.20660000      -2.19560000       2.17430000
H        1.72150000      -2.28470000       1.24480000
H       -2.35220000      -2.50820000       0.06320000
H       -2.29830000       0.06210000      -0.00860000
