19
Properties=species:S:1:pos:R:3 gdb_80524=T pbc="F F F"
C       -0.22710000       1.59390000      -0.18530000
C        0.03560000       0.10070000      -0.02630000
C        1.17870000      -0.58180000      -0.84890000
C        1.75230000      -1.19250000       0.43320000
C        2.12530000      -0.14420000       1.41540000
O        2.61520000       1.10950000       1.03460000
C        0.65570000      -0.42430000       1.28190000
C       -0.09780000      -0.98920000       2.41430000
O        0.39970000      -1.50070000       3.39230000
H        0.68630000       2.17090000      -0.03310000
H       -0.61810000       1.81140000      -1.18570000
H       -0.97230000       1.93650000       0.54160000
H       -0.89390000      -0.45360000      -0.20210000
H        0.81660000      -1.32180000      -1.56370000
H        1.85780000       0.10580000      -1.36070000
H        2.03400000      -2.22970000       0.57330000
H        2.51850000      -0.52790000       2.35650000
H        3.53750000       0.99960000       0.77820000
H       -1.20520000      -0.93620000       2.29890000
