14
Properties=species:S:1:pos:R:3 gdb_132299=T pbc="F F F"
N        0.09530000       1.34240000       0.16390000
C       -0.05630000      -0.01260000       0.05760000
C       -1.23630000      -0.69050000       0.03140000
C       -1.14880000      -2.10840000      -0.01100000
F       -2.30240000      -2.77220000      -0.03360000
C        0.02320000      -2.78300000      -0.03100000
C        1.26090000      -2.05330000      -0.01060000
N        2.42380000      -2.55920000      -0.02830000
O        1.13290000      -0.63630000       0.02910000
H        0.98940000       1.70280000      -0.13250000
H       -0.69860000       1.90810000      -0.08920000
H       -2.19030000      -0.18560000       0.05360000
H        0.07000000      -3.86110000      -0.06440000
H        3.14000000      -1.83500000      -0.00490000
