24
Properties=species:S:1:pos:R:3 gdb_100264=T pbc="F F F"
C       -0.09070000       1.53740000       0.16420000
C        0.02740000       0.01450000       0.04610000
C        0.71900000      -0.50370000      -1.24370000
C        0.79760000      -2.04600000      -1.18680000
C       -0.02410000      -0.05640000      -2.52740000
C       -1.50720000      -0.43230000      -2.61430000
C        2.15910000       0.06280000      -1.32810000
N        2.97530000      -0.21920000      -0.26580000
O        2.55800000       0.73310000      -2.26160000
H        0.88980000       2.02070000       0.11020000
H       -0.71220000       1.95990000      -0.63050000
H       -0.54620000       1.81270000       1.12050000
H        0.56990000      -0.36830000       0.91950000
H       -0.96960000      -0.43760000       0.10400000
H       -0.20490000      -2.48270000      -1.16460000
H        1.32140000      -2.44750000      -2.06010000
H        1.31900000      -2.40190000      -0.29210000
H        0.08640000       1.02560000      -2.63450000
H        0.50940000      -0.47840000      -3.38520000
H       -1.67170000      -1.51260000      -2.54850000
H       -2.10430000       0.04280000      -1.82940000
H       -1.91680000      -0.10260000      -3.57430000
H        2.72200000      -0.86810000       0.45710000
H        3.93890000       0.06370000      -0.33840000
