23
Properties=species:S:1:pos:R:3 gdb_57381=T pbc="F F F"
C       -0.08600000       1.51560000      -0.00590000
C        0.03740000      -0.00920000      -0.01380000
C        0.75590000      -0.50760000       1.24850000
O       -1.31240000      -0.49490000      -0.03030000
C        0.74980000      -0.49100000      -1.26880000
C        2.22920000      -0.24820000      -1.71050000
C        1.59460000      -1.11750000      -2.83140000
C        0.95410000      -1.98100000      -1.71010000
C        0.34480000      -0.19860000      -2.74840000
H        0.90020000       1.98800000      -0.01140000
H       -0.64350000       1.85640000      -0.88200000
H       -0.62410000       1.84150000       0.88870000
H        0.19580000      -0.20450000       2.13770000
H        0.83300000      -1.60080000       1.24950000
H        1.76990000      -0.10190000       1.32010000
H       -1.27360000      -1.45750000      -0.04000000
H        2.49750000       0.77760000      -1.97880000
H        3.00880000      -0.71970000      -1.10500000
H        2.08450000      -1.48160000      -3.73480000
H        1.63730000      -2.58700000      -1.10770000
H        0.05410000      -2.54140000      -1.98250000
H       -0.60520000      -0.62200000      -3.08380000
H        0.47080000       0.83010000      -3.09710000
