18
Properties=species:S:1:pos:R:3 gdb_17331=T pbc="F F F"
C        0.09330000       1.50510000       0.02910000
C       -0.02580000       0.00080000       0.00060000
C       -0.69980000      -0.77120000       1.07730000
N        0.77060000      -0.78480000       0.97730000
C        1.36810000      -1.94290000       0.27270000
C        0.95850000      -1.87110000      -1.19420000
N       -0.49100000      -2.04110000      -1.41880000
C        0.08470000      -0.68000000      -1.35110000
H        0.98190000       1.84360000      -0.51640000
H       -0.78370000       1.97750000      -0.42810000
H        0.17700000       1.85930000       1.05920000
H       -1.07870000      -0.25110000       1.95450000
H       -1.25160000      -1.65860000       0.78460000
H        2.45790000      -1.85920000       0.35280000
H        1.06660000      -2.88280000       0.74650000
H        1.65340000      -2.19230000      -1.96500000
H       -0.65630000      -2.28770000      -2.39210000
H        0.09410000      -0.06400000      -2.24410000
