20
Properties=species:S:1:pos:R:3 gdb_13346=T pbc="F F F"
O       -0.65950000       0.67280000       0.55750000
C        0.07010000       0.97160000      -0.35250000
C        1.33750000       1.78500000      -0.22710000
C        1.35150000       2.99480000      -1.17220000
C        0.30710000       4.07920000      -0.84260000
C        0.79570000       5.34450000      -1.58860000
C        2.31290000       5.11680000      -1.86610000
C        2.66900000       3.78880000      -1.16720000
H       -0.15940000       0.64870000      -1.39700000
H        1.45690000       2.09140000       0.81720000
H        2.17460000       1.11860000      -0.48430000
H        1.17170000       2.63680000      -2.19740000
H       -0.71220000       3.79100000      -1.11660000
H        0.30580000       4.25130000       0.24110000
H        0.25100000       5.47600000      -2.52820000
H        0.61750000       6.24730000      -0.99830000
H        2.49070000       5.03210000      -2.94300000
H        2.93140000       5.94550000      -1.51160000
H        2.97180000       3.97280000      -0.12820000
H        3.49170000       3.25500000      -1.65290000
