18
Properties=species:S:1:pos:R:3 gdb_106756=T pbc="F F F"
C        0.14640000       1.35570000       0.18720000
O       -0.14180000      -0.02190000      -0.05020000
C        0.49890000      -0.52580000      -1.14300000
C        1.96300000      -1.00840000      -1.12670000
C        0.85820000      -1.94900000      -1.49350000
C        0.51200000      -3.28200000      -0.92840000
O        0.51880000      -1.69530000      -2.89870000
C        0.07090000      -0.41520000      -2.57610000
N       -0.52320000       0.44450000      -3.26660000
H        1.21950000       1.50830000       0.36370000
H       -0.17240000       1.97360000      -0.65940000
H       -0.41250000       1.64040000       1.08040000
H        2.68010000      -0.68450000      -1.87460000
H        2.34740000      -1.12250000      -0.11680000
H        0.67380000      -3.28030000       0.15290000
H       -0.53630000      -3.52410000      -1.12470000
H        1.13800000      -4.06580000      -1.36770000
H       -0.67610000       0.11570000      -4.22160000
