19
Properties=species:S:1:pos:R:3 gdb_88637=T pbc="F F F"
C        0.26040000       1.62880000      -0.17840000
C       -0.08040000       0.17090000       0.04840000
C        0.95210000      -0.91720000      -0.13980000
C        0.41350000      -0.61890000       1.23960000
C        1.28320000      -0.05380000       2.33030000
C        2.20640000      -1.03810000       3.08080000
C        3.32810000      -0.17340000       2.51190000
O        4.51400000      -0.12110000       2.54770000
O        2.47350000       0.67180000       1.84510000
H        1.28070000       1.85910000       0.13400000
H        0.16580000       1.88150000      -1.24000000
H       -0.41910000       2.28490000       0.37760000
H       -1.08710000      -0.09580000      -0.26460000
H        0.66410000      -1.84500000      -0.62150000
H        1.96600000      -0.59480000      -0.35090000
H       -0.29430000      -1.33820000       1.64710000
H        0.72040000       0.61110000       2.99250000
H        2.14520000      -1.04270000       4.17010000
H        2.20480000      -2.06200000       2.70250000
