21
Properties=species:S:1:pos:R:3 gdb_121860=T pbc="F F F"
C        0.05070000       0.37530000       1.40000000
C       -0.18710000      -0.21320000       0.01990000
O       -1.41600000      -0.91120000       0.03360000
C       -1.74190000      -1.49430000      -1.20200000
C       -3.07390000      -2.24820000      -1.05690000
O       -3.53300000      -2.65850000      -2.34430000
C       -2.97550000      -3.37040000      -0.12450000
C       -2.87830000      -4.33090000       0.59570000
C       -2.77330000      -5.47800000       1.48540000
H        0.99850000       0.92150000       1.42360000
H       -0.75500000       1.06490000       1.66680000
H        0.08620000      -0.41720000       2.15290000
H       -0.21140000       0.58380000      -0.74280000
H        0.63340000      -0.89690000      -0.25710000
H       -1.86740000      -0.73260000      -1.98790000
H       -0.95660000      -2.19510000      -1.53360000
H       -3.81810000      -1.53090000      -0.69100000
H       -3.10060000      -3.49470000      -2.54750000
H       -3.51900000      -6.24170000       1.23850000
H       -1.78430000      -5.94510000       1.42330000
H       -2.93550000      -5.18210000       2.52760000
