21
Properties=species:S:1:pos:R:3 gdb_119096=T pbc="F F F"
C        0.13200000       1.22000000       0.42400000
O        0.09170000      -0.17030000       0.20160000
C       -1.21720000      -0.66750000       0.06700000
C       -1.15700000      -2.18250000      -0.08760000
C       -0.84280000      -2.92670000       1.22280000
O       -2.23470000      -3.27510000       1.39890000
C       -2.55510000      -2.84600000       0.06080000
O       -0.34140000      -2.62980000      -1.13720000
C       -0.61590000      -2.08570000      -2.41170000
H        1.18290000       1.50680000       0.50760000
H       -0.32480000       1.78040000      -0.40710000
H       -0.38950000       1.50020000       1.35270000
H       -1.82650000      -0.43600000       0.95660000
H       -1.72540000      -0.20580000      -0.79720000
H       -0.21080000      -3.80690000       1.05610000
H       -0.45020000      -2.33280000       2.05360000
H       -3.44000000      -2.19850000       0.03690000
H       -2.69450000      -3.69000000      -0.62760000
H       -1.67590000      -2.19120000      -2.68840000
H       -0.33480000      -1.02660000      -2.47650000
H       -0.01420000      -2.65010000      -3.12780000
