20
Properties=species:S:1:pos:R:3 gdb_70091=T pbc="F F F"
C       -0.05700000       1.49200000       0.00470000
C        0.10210000      -0.00580000       0.01260000
N       -0.74240000      -0.83620000       0.89730000
C        0.73780000      -0.77290000       1.11670000
C        1.44080000      -1.92930000       0.49320000
C        1.24510000      -1.93620000      -0.82560000
C        0.43700000      -0.73890000      -1.30760000
C       -0.80460000      -1.13230000      -2.11140000
O        1.25720000       0.15960000      -2.06970000
H        0.81050000       1.97350000      -0.45090000
H       -0.94330000       1.79220000      -0.56650000
H       -0.17180000       1.87040000       1.02610000
H       -1.19780000      -0.21540000       1.56650000
H        1.10760000      -0.29900000       2.01990000
H        1.98790000      -2.67360000       1.05990000
H        1.59040000      -2.70050000      -1.51500000
H       -1.47950000      -1.73500000      -1.50090000
H       -1.33150000      -0.23500000      -2.45140000
H       -0.52260000      -1.71500000      -2.99690000
H        1.48940000      -0.28350000      -2.89230000
