17
Properties=species:S:1:pos:R:3 gdb_56088=T pbc="F F F"
C       -0.05480000       1.52420000       0.01090000
C        0.07100000       0.01290000       0.00130000
O        1.14380000      -0.54590000      -0.01200000
C       -1.23560000      -0.77370000       0.00960000
C       -1.00390000      -2.29320000      -0.00100000
C       -2.24030000      -3.05780000       0.00660000
C       -3.27100000      -3.68860000       0.01360000
C       -4.51570000      -4.41090000       0.02140000
O       -4.61280000      -5.61700000       0.01640000
H        0.93650000       1.97810000       0.00410000
H       -0.62340000       1.86520000      -0.86150000
H       -0.60680000       1.85540000       0.89770000
H       -1.82050000      -0.47710000       0.88930000
H       -1.83730000      -0.46750000      -0.85540000
H       -0.40680000      -2.56720000      -0.87830000
H       -0.39000000      -2.57670000       0.86160000
H       -5.41520000      -3.76140000       0.03300000
