19
Properties=species:S:1:pos:R:3 gdb_61084=T pbc="F F F"
C        0.21570000       1.47510000       0.01600000
N        0.00850000       0.03180000      -0.01990000
C       -0.18680000      -0.67130000       1.15000000
O       -0.20450000      -0.18830000       2.25730000
C        0.00910000      -0.62990000      -1.24030000
N        0.18480000      -0.01700000      -2.33520000
C        0.17010000      -0.77270000      -3.53800000
C       -0.39710000      -0.10300000      -4.76980000
C        1.08650000      -0.31880000      -4.65230000
H        1.18290000       1.72410000      -0.42720000
H       -0.56300000       1.97830000      -0.56220000
H        0.17980000       1.78430000       1.05920000
H       -0.32890000      -1.75140000       0.96020000
H       -0.15530000      -1.71080000      -1.15140000
H        0.00610000      -1.84850000      -3.44300000
H       -0.96120000      -0.71630000      -5.46340000
H       -0.77160000       0.90500000      -4.63830000
H        1.70620000       0.54470000      -4.44220000
H        1.55380000      -1.08200000      -5.26420000
