23
Properties=species:S:1:pos:R:3 gdb_104858=T pbc="F F F"
C       -0.09870000       1.26550000      -0.65010000
C       -0.07450000      -0.16380000      -0.09860000
C       -1.46960000      -0.70160000       0.22920000
C       -2.30410000      -1.10400000      -1.00290000
O       -2.09610000      -2.50520000      -0.73890000
C       -1.56310000      -2.22530000       0.57730000
C       -0.34860000      -3.07030000       0.90190000
O       -2.21060000       0.15550000       1.07580000
C       -1.69450000       0.31540000       2.38080000
H        0.91410000       1.61300000      -0.87370000
H       -0.68180000       1.32610000      -1.57520000
H       -0.54940000       1.95820000       0.06530000
H        0.38390000      -0.83730000      -0.83100000
H        0.56330000      -0.21010000       0.79240000
H       -3.35650000      -0.81000000      -0.90700000
H       -1.92430000      -0.81240000      -1.98820000
H       -2.34210000      -2.37540000       1.34060000
H        0.45620000      -2.91900000       0.17850000
H        0.03000000      -2.83970000       1.90350000
H       -0.62490000      -4.12960000       0.88210000
H       -1.55460000      -0.64970000       2.88970000
H       -0.73800000       0.85630000       2.39450000
H       -2.42960000       0.89840000       2.94070000
