21
Properties=species:S:1:pos:R:3 gdb_58636=T pbc="F F F"
C        0.04120000       1.40310000      -0.32740000
C       -0.12690000      -0.08560000      -0.00170000
C        0.76100000      -0.49510000       1.18580000
C       -1.58310000      -0.49360000       0.23170000
C       -2.55970000       0.38570000       0.89500000
O       -2.57170000       0.21600000      -0.52550000
C       -1.81610000      -1.97970000       0.31880000
C       -2.91450000      -2.63170000      -0.40110000
O       -1.56800000      -2.72280000      -0.87800000
H        1.06520000       1.59630000      -0.66110000
H       -0.64630000       1.71500000      -1.11570000
H       -0.13510000       2.03230000       0.55250000
H        0.19470000      -0.66130000      -0.87970000
H        0.44390000       0.00930000       2.10600000
H        0.74230000      -1.57340000       1.36700000
H        1.80100000      -0.21340000       0.99480000
H       -3.40590000      -0.05450000       1.42140000
H       -2.26090000       1.37220000       1.24250000
H       -1.43420000      -2.45720000       1.22210000
H       -3.33430000      -3.55860000      -0.01280000
H       -3.57770000      -2.01720000      -1.00360000
