24
Properties=species:S:1:pos:R:3 gdb_88422=T pbc="F F F"
C        0.99950000      -2.88150000      -2.97460000
C        0.73840000      -3.38560000      -1.57170000
C        1.86110000      -3.74540000      -0.63130000
C        0.97000000      -2.56160000      -0.31320000
C        1.55940000      -1.16380000      -0.43050000
C       -0.11620000      -2.64300000       0.73020000
C       -0.42020000      -3.85500000       1.54180000
N        0.10400000      -2.65460000       2.18480000
C        1.46030000      -2.72700000       2.71220000
H        1.91240000      -2.28330000      -3.03620000
H        1.11650000      -3.72270000      -3.66690000
H        0.17120000      -2.26480000      -3.34150000
H       -0.12890000      -4.03860000      -1.50340000
H        1.78520000      -4.65850000      -0.05260000
H        2.87420000      -3.51580000      -0.94920000
H        2.30460000      -1.09510000      -1.22650000
H        0.77740000      -0.42430000      -0.63970000
H        2.04820000      -0.86720000       0.50310000
H       -0.96720000      -2.01130000       0.46850000
H       -1.44850000      -4.11760000       1.78050000
H        0.24750000      -4.70970000       1.44700000
H        2.16190000      -3.31350000       2.10210000
H        1.86180000      -1.71380000       2.81850000
H        1.41970000      -3.17450000       3.71090000
