21
Properties=species:S:1:pos:R:3 gdb_101200=T pbc="F F F"
O        0.10840000       1.38880000      -0.06180000
C        0.02880000      -0.00320000       0.14840000
C       -1.41510000      -0.49650000       0.01130000
O       -1.94580000      -0.01650000      -1.23610000
C       -1.52320000      -1.99820000       0.13970000
C       -1.89460000      -2.75150000       1.39410000
C       -2.96820000      -2.01770000       2.21000000
C       -3.90020000      -2.01250000       0.95380000
C       -2.81800000      -2.76780000       0.17060000
H       -0.47810000       1.56060000      -0.81080000
H        0.66530000      -0.55660000      -0.56760000
H        0.40880000      -0.21340000       1.15420000
H       -2.01740000       0.01180000       0.76940000
H       -1.64680000      -0.61510000      -1.93000000
H       -0.75360000      -2.52380000      -0.42790000
H       -1.25420000      -3.53720000       1.77740000
H       -3.37120000      -2.64280000       3.00960000
H       -2.69070000      -1.05070000       2.64130000
H       -4.80200000      -2.60760000       1.11050000
H       -4.19120000      -1.04030000       0.54640000
H       -3.00310000      -3.57340000      -0.53030000
