17
Properties=species:S:1:pos:R:3 gdb_72058=T pbc="F F F"
O       -0.29400000       1.29260000      -0.10980000
C       -0.05050000      -0.05860000      -0.05020000
C        0.92630000      -0.86290000      -0.90330000
C        0.11540000      -2.10940000      -0.44910000
C        0.38370000      -2.20970000       1.07770000
C       -0.37730000      -0.89330000       1.19380000
C       -1.11230000      -1.14400000      -0.13150000
C       -2.47430000      -1.13910000      -0.48400000
C       -3.63650000      -1.15140000      -0.80150000
H        0.24960000       1.73450000       0.55180000
H        0.78140000      -0.64600000      -1.96460000
H        1.99400000      -0.83960000      -0.65470000
H        0.06060000      -2.99470000      -1.07680000
H       -0.16840000      -3.03350000       1.53760000
H        1.43120000      -2.24080000       1.39940000
H       -0.80500000      -0.42100000       2.06950000
H       -4.66050000      -1.15320000      -1.08010000
