17
Properties=species:S:1:pos:R:3 gdb_64995=T pbc="F F F"
O        0.16240000       1.22460000       0.33000000
C        0.00070000      -0.15850000       0.10920000
C       -0.84060000      -0.95320000       1.07080000
C       -1.38900000      -0.59750000      -0.28630000
C        1.16460000      -0.83460000      -0.56830000
N        1.25250000      -2.09980000      -0.60830000
N        2.05100000       0.09720000      -1.14080000
C        3.17680000      -0.18160000      -1.86940000
O        3.60240000      -1.28690000      -2.12250000
H        0.59000000       1.33980000       1.18640000
H       -0.53100000      -1.97650000       1.24400000
H       -1.23280000      -0.41370000       1.92610000
H       -2.13360000       0.18800000      -0.34300000
H       -1.45960000      -1.38360000      -1.02790000
H        2.07140000      -2.39030000      -1.14150000
H        1.79240000       1.06500000      -1.00010000
H        3.67550000       0.74500000      -2.21320000
