14
Properties=species:S:1:pos:R:3 gdb_54442=T pbc="F F F"
N        0.43520000       0.28520000      -1.04610000
C       -0.00700000       0.15860000       0.23180000
O        0.61050000       0.49180000       1.22400000
C       -1.35790000      -0.47880000       0.34650000
C       -2.31300000      -0.43890000       1.54420000
C       -2.70510000      -1.89760000       1.16380000
O       -3.35460000      -2.75000000       1.68500000
C       -1.75580000      -1.86890000      -0.04040000
O       -2.15260000      -0.71980000      -0.81530000
H        1.31710000       0.74270000      -1.20690000
H       -0.18790000       0.10800000      -1.81600000
H       -1.80150000      -0.41470000       2.50940000
H       -3.09130000       0.32470000       1.50460000
H       -1.20670000      -2.65400000      -0.54720000
