18
Properties=species:S:1:pos:R:3 gdb_125409=T pbc="F F F"
C        0.00700000       1.51910000       0.01850000
C        0.00350000       0.02300000       0.01410000
C       -0.03610000      -0.82790000      -1.04310000
O       -0.03840000      -2.10630000      -0.63590000
N       -0.00170000      -2.12860000       0.75330000
C        0.02360000      -0.87220000       1.13470000
C        0.10050000      -0.53440000       2.59180000
C        1.54200000      -0.25040000       3.05380000
O        1.60310000       0.14310000       4.41170000
H        0.92950000       1.92460000       0.44870000
H       -0.08460000       1.91390000      -0.99670000
H       -0.82560000       1.92070000       0.60680000
H       -0.07060000      -0.67360000      -2.11100000
H       -0.51410000       0.34520000       2.81170000
H       -0.30310000      -1.37410000       3.16790000
H        2.16800000      -1.13200000       2.85190000
H        1.96330000       0.58380000       2.48290000
H        1.34650000      -0.61210000       4.95070000
