17
Properties=species:S:1:pos:R:3 gdb_121724=T pbc="F F F"
O        0.17750000       1.27160000      -0.30060000
C        0.04400000      -0.13500000      -0.30390000
C       -1.37040000      -0.57980000       0.01980000
O       -2.21190000      -0.05570000      -1.03430000
C       -3.52040000      -0.35610000      -0.95100000
O       -4.00580000      -1.03770000      -0.08390000
C       -4.30660000       0.25890000      -2.09050000
C       -5.30460000      -0.73220000      -2.67910000
O       -5.57350000      -0.78160000      -3.84870000
H       -0.44300000       1.61250000      -0.95380000
H        0.35220000      -0.57180000      -1.26660000
H        0.71920000      -0.51980000       0.46720000
H       -1.46190000      -1.66970000       0.05040000
H       -1.70680000      -0.17150000       0.97700000
H       -4.89710000       1.08100000      -1.66170000
H       -3.66760000       0.66690000      -2.87360000
H       -5.77540000      -1.40060000      -1.92980000
