23
Properties=species:S:1:pos:R:3 gdb_80426=T pbc="F F F"
C       -0.06420000       1.54270000      -0.11390000
C        0.04530000       0.02180000      -0.02690000
C        1.00370000      -0.56990000      -1.08510000
C        1.17380000      -2.03890000      -0.66420000
C        1.92380000      -1.30900000       0.47740000
C        3.06720000      -1.92070000       1.23860000
O        2.31700000      -0.28660000      -0.50850000
C        0.77900000      -0.57600000       1.24000000
C        1.27900000       0.42690000       2.27790000
H        0.92570000       2.00680000      -0.12420000
H       -0.58140000       1.83290000      -1.03520000
H       -0.63000000       1.96080000       0.72410000
H       -0.95430000      -0.41580000      -0.12960000
H        0.89700000      -0.24770000      -2.12200000
H        0.28720000      -2.63360000      -0.42670000
H        1.85920000      -2.58190000      -1.31670000
H        3.78850000      -2.37370000       0.55310000
H        3.58900000      -1.16660000       1.83540000
H        2.69830000      -2.69700000       1.91760000
H        0.13480000      -1.30960000       1.73830000
H        2.02680000       1.09980000       1.84910000
H        0.46070000       1.03650000       2.67260000
H        1.73660000      -0.09000000       3.12790000
