15
Properties=species:S:1:pos:R:3 gdb_24667=T pbc="F F F"
C        0.91000000       0.84600000      -0.26020000
O       -0.24550000       0.26570000      -0.85840000
C       -0.35220000       0.71280000       0.49350000
C       -0.53430000      -0.33090000       1.53900000
C       -0.31440000      -1.68870000       1.27970000
N       -0.45600000      -2.62130000       2.22050000
C       -0.82840000      -2.18980000       3.42810000
C       -1.06730000      -0.84250000       3.68490000
N       -0.92590000       0.09270000       2.74500000
H        1.72700000       0.15700000      -0.05230000
H        1.20000000       1.82190000      -0.64610000
H       -0.95370000       1.60710000       0.64830000
H       -0.03270000      -2.01610000       0.28380000
H       -0.94760000      -2.93780000       4.20730000
H       -1.38650000      -0.50870000       4.66900000
