19
Properties=species:S:1:pos:R:3 gdb_78513=T pbc="F F F"
C        0.06420000       1.41510000      -0.17300000
C        0.00330000      -0.06930000      -0.02690000
O        0.55140000      -0.91440000      -1.08960000
C        0.05650000      -1.86590000      -0.09580000
C        0.20870000      -3.32920000      -0.36050000
C        0.50830000      -1.00270000       1.12850000
C       -0.88400000      -1.07620000       1.76230000
O       -1.20380000       0.04530000       2.55870000
C       -1.21220000      -1.02050000       0.25510000
H        1.10260000       1.74790000      -0.26940000
H       -0.48310000       1.73600000      -1.06510000
H       -0.37930000       1.88440000       0.70820000
H        1.26550000      -3.58880000      -0.47690000
H       -0.20240000      -3.91470000       0.46780000
H       -0.31760000      -3.60960000      -1.27810000
H        1.49040000      -0.99240000       1.60140000
H       -1.13200000      -2.01580000       2.27510000
H       -2.13960000       0.00190000       2.77880000
H       -2.17180000      -1.03300000      -0.26420000
