17
Properties=species:S:1:pos:R:3 gdb_123928=T pbc="F F F"
C       -0.01600000       1.51860000      -0.01700000
C        1.41610000       2.06640000       0.03740000
O        2.10070000       1.71900000       1.24410000
C        1.94920000       0.40230000       1.55470000
C        0.99870000      -0.43890000       1.01360000
C       -0.02870000      -0.02710000       0.01180000
N        1.20420000      -1.64180000       1.61680000
N        2.21620000      -1.62630000       2.50550000
C        2.67990000      -0.37650000       2.47490000
H       -0.57220000       1.90750000       0.84300000
H       -0.50530000       1.89250000      -0.92170000
H        1.99260000       1.69000000      -0.82170000
H        1.41820000       3.15850000       0.00160000
H       -1.02780000      -0.39340000       0.27620000
H        0.19830000      -0.42900000      -0.98510000
H        0.70120000      -2.49990000       1.47060000
H        3.50500000      -0.08270000       3.10490000
