18
Properties=species:S:1:pos:R:3 gdb_124467=T pbc="F F F"
C       -0.17780000       1.50620000      -0.10810000
C        0.00950000      -0.01530000       0.02800000
C        0.86900000      -0.36220000       1.25650000
O       -1.25630000      -0.66990000       0.10270000
C        0.64310000      -0.57030000      -1.21820000
C        0.23080000      -1.47670000      -2.14340000
C        1.32040000      -1.53050000      -3.05300000
N        2.30080000      -0.73200000      -2.71110000
O        1.86820000      -0.11530000      -1.53440000
H        0.78060000       2.00750000      -0.26530000
H       -0.83400000       1.72830000      -0.95310000
H       -0.63080000       1.91060000       0.80420000
H        0.41110000       0.05080000       2.16240000
H        0.94490000      -1.44680000       1.36580000
H        1.87540000       0.05340000       1.16190000
H       -1.70350000      -0.34540000       0.89110000
H       -0.70100000      -2.01310000      -2.16350000
H        1.42370000      -2.12680000      -3.94900000
