23
Properties=species:S:1:pos:R:3 gdb_92472=T pbc="F F F"
C       -0.25950000       1.54080000       0.00880000
C        0.02770000       0.03710000       0.00110000
C        0.81740000      -0.42320000      -1.26130000
C        1.96580000      -1.34380000      -0.82210000
C        2.98950000      -0.56060000       0.01260000
C        2.25640000       0.04850000       1.24150000
C        0.80260000      -0.46350000       1.24300000
C        0.84620000      -1.99480000       1.17470000
O        1.44270000      -2.42980000      -0.05230000
H        0.66230000       2.13220000      -0.01100000
H       -0.84640000       1.82530000      -0.87120000
H       -0.82770000       1.83500000       0.89830000
H       -0.94050000      -0.47920000       0.00840000
H        0.16360000      -0.95530000      -1.95830000
H        1.22950000       0.43850000      -1.80130000
H        2.44520000      -1.81160000      -1.68630000
H        3.78410000      -1.24400000       0.32610000
H        3.45590000       0.21530000      -0.60360000
H        2.74880000      -0.24990000       2.17270000
H        2.27960000       1.14170000       1.21740000
H        0.28650000      -0.15810000       2.16000000
H        1.42260000      -2.40280000       2.01890000
H       -0.16690000      -2.41730000       1.22950000
