19
Properties=species:S:1:pos:R:3 gdb_55339=T pbc="F F F"
C       -0.07580000       1.48890000      -0.25710000
C        0.02120000       0.01650000       0.08760000
O        1.08280000      -0.52270000       0.31810000
C       -1.27830000      -0.76220000       0.08460000
C       -1.50890000      -1.42970000      -1.32020000
C       -0.96140000      -2.76200000      -0.74670000
C       -1.15980000      -2.20200000       0.68370000
C       -0.10620000      -2.45290000       1.74540000
O       -0.20210000      -2.04550000       2.87520000
H        0.91950000       1.90410000      -0.41790000
H       -0.70020000       1.64650000      -1.14290000
H       -0.55940000       2.02010000       0.57140000
H       -2.10020000      -0.14240000       0.44990000
H       -2.57290000      -1.47970000      -1.56200000
H       -0.97820000      -0.99120000      -2.16900000
H       -1.49910000      -3.67490000      -1.00940000
H        0.10010000      -2.89690000      -0.97210000
H       -2.12670000      -2.49100000       1.10700000
H        0.75310000      -3.07950000       1.42220000
