17
Properties=species:S:1:pos:R:3 gdb_128414=T pbc="F F F"
C       -0.92340000       0.78650000      -0.83910000
N        0.07970000       0.27860000       0.09200000
C       -0.43770000      -0.69060000       1.04250000
C       -0.88110000      -2.01930000       0.45070000
N       -0.11760000      -2.54250000      -0.52360000
C       -0.52450000      -3.71000000      -0.99490000
C       -1.66990000      -4.32230000      -0.48510000
N       -2.38640000      -3.75410000       0.47960000
N       -1.98710000      -2.57740000       0.95490000
H       -0.45040000       1.49460000      -1.52550000
H       -1.42900000       0.01360000      -1.44290000
H       -1.69410000       1.32840000      -0.27980000
H        0.83720000      -0.15220000      -0.42830000
H        0.34510000      -0.90450000       1.78280000
H       -1.28340000      -0.26400000       1.58940000
H        0.06270000      -4.17050000      -1.78670000
H       -2.02640000      -5.27960000      -0.85120000
