17
Properties=species:S:1:pos:R:3 gdb_83724=T pbc="F F F"
O        0.00650000       1.46530000       0.09600000
C       -0.01370000       0.06220000       0.04120000
C       -1.39980000      -0.55630000      -0.04040000
C       -2.41100000       0.08630000      -1.03610000
C       -2.44520000      -1.24670000      -1.84110000
C       -1.23120000      -1.74770000      -1.03170000
O        0.01050000      -1.51630000      -1.73380000
C        0.65870000      -0.43940000      -1.24270000
O        1.61680000       0.06210000      -1.76240000
H        0.80570000       1.73820000      -0.37710000
H        0.54250000      -0.37540000       0.88840000
H       -1.82590000      -0.81590000       0.92790000
H       -3.35720000       0.41120000      -0.60200000
H       -1.97780000       0.92770000      -1.57980000
H       -3.33790000      -1.84390000      -1.63890000
H       -2.29190000      -1.19280000      -2.92050000
H       -1.22230000      -2.77740000      -0.67140000
