17
Properties=species:S:1:pos:R:3 gdb_31345=T pbc="F F F"
C        0.03240000       1.57360000      -0.08620000
C       -0.03620000       0.04340000       0.05990000
C        0.60230000      -0.45410000       1.31600000
C        0.01480000      -1.07640000       2.34590000
C        0.78770000      -1.49080000       3.51110000
N        0.24350000      -2.08760000       4.50060000
N        2.17580000      -1.18680000       3.47030000
C        2.63570000      -0.59420000       2.44890000
O        1.95800000      -0.19350000       1.34340000
H        1.06890000       1.92020000      -0.07970000
H       -0.42600000       1.88600000      -1.02830000
H       -0.49770000       2.06810000       0.73310000
H       -1.07590000      -0.29550000       0.05030000
H        0.46540000      -0.42610000      -0.79590000
H       -1.04740000      -1.28320000       2.32850000
H        0.96150000      -2.28460000       5.20120000
H        3.68730000      -0.33590000       2.35760000
