20
Properties=species:S:1:pos:R:3 gdb_106331=T pbc="F F F"
C        0.12200000       1.30900000      -0.20040000
O        0.00410000      -0.04360000       0.21590000
C       -1.27380000      -0.53600000       0.09310000
C       -2.38170000      -0.35800000       1.14360000
N       -2.69270000      -1.80750000       1.03620000
C       -4.06870000      -2.23110000       0.83940000
C       -1.71440000      -1.99340000      -0.02760000
C       -1.84870000      -1.02520000      -1.19670000
O       -3.06140000      -0.51580000      -1.67620000
H        1.17180000       1.58650000      -0.08430000
H       -0.17290000       1.43130000      -1.25160000
H       -0.49460000       1.97820000       0.41580000
H       -1.99960000      -0.09010000       2.13430000
H       -3.19690000       0.31690000       0.85880000
H       -4.58680000      -1.71210000       0.01860000
H       -4.08430000      -3.30760000       0.63730000
H       -4.63450000      -2.06250000       1.76240000
H       -1.13540000      -2.90950000      -0.09950000
H       -1.07600000      -1.18100000      -1.95310000
H       -3.50500000      -1.21580000      -2.16660000
