15
Properties=species:S:1:pos:R:3 gdb_14543=T pbc="F F F"
O       -0.12420000       1.36250000      -0.02100000
C       -0.06780000      -0.03110000       0.03890000
C        1.02640000      -0.61230000      -0.71560000
N        1.92110000      -1.05050000      -1.30320000
C       -0.46950000      -0.81800000       1.27380000
C       -1.54330000      -0.04070000       2.04420000
C       -2.44150000      -0.03980000       0.76580000
C       -1.35160000      -0.81550000       0.01560000
H        0.63660000       1.71960000       0.45200000
H        0.17610000      -1.59370000       1.66760000
H       -1.97340000      -0.62940000       2.85600000
H       -1.24080000       0.93480000       2.43260000
H       -3.34700000      -0.63460000       0.89640000
H       -2.70390000       0.93320000       0.34750000
H       -1.50830000      -1.59020000      -0.72480000
