15
Properties=species:S:1:pos:R:3 gdb_30396=T pbc="F F F"
C        0.03920000       1.42920000       0.07880000
N        0.00060000      -0.01880000       0.12490000
C       -1.11970000      -0.62580000       0.06310000
C       -1.15480000      -2.08900000       0.11000000
C       -2.31830000      -2.73090000       0.04630000
O       -3.51770000      -2.05490000      -0.06470000
C       -3.42130000      -0.69420000      -0.10360000
O       -4.63070000      -0.14360000      -0.21110000
N       -2.37450000       0.01420000      -0.05070000
H        0.66630000       1.73940000      -0.76640000
H       -0.94200000       1.90730000      -0.00960000
H        0.53750000       1.79860000       0.98370000
H       -0.22360000      -2.63180000       0.19680000
H       -2.47640000      -3.79980000       0.07080000
H       -5.28820000      -0.85080000      -0.23550000
