19
Properties=species:S:1:pos:R:3 gdb_47047=T pbc="F F F"
O       -0.02430000       0.06400000      -0.64680000
C       -0.04740000       1.16880000      -0.17720000
C       -1.31690000       1.99470000      -0.03410000
C       -1.29100000       2.90230000       1.20010000
C       -0.10240000       3.84950000       1.06600000
C        0.54920000       4.32210000       2.39710000
C        1.59080000       3.17330000       2.26740000
C        1.19620000       3.05050000       0.77830000
O        1.11320000       1.72150000       0.26110000
H       -1.42320000       2.60360000      -0.94200000
H       -2.14860000       1.28790000      -0.02710000
H       -2.22870000       3.45820000       1.29780000
H       -1.19370000       2.28780000       2.10350000
H       -0.33290000       4.63000000       0.33490000
H        1.00480000       5.31090000       2.30720000
H       -0.09110000       4.31420000       3.28200000
H        2.63490000       3.39740000       2.49180000
H        1.29590000       2.27870000       2.82090000
H        1.88450000       3.59580000       0.12600000
