15
Properties=species:S:1:pos:R:3 gdb_32516=T pbc="F F F"
C        0.04050000       1.33440000       0.00660000
O        0.00790000      -0.08470000       0.00290000
C       -1.22150000      -0.63320000       0.01050000
C       -2.45320000      -0.04930000       0.02130000
O       -3.41860000      -1.03090000       0.02570000
C       -2.79530000      -2.21590000       0.01760000
C       -1.43520000      -2.06080000       0.00790000
C       -0.43140000      -3.12410000      -0.00270000
O       -0.69270000      -4.30810000      -0.00430000
H        1.09190000       1.62330000      -0.00050000
H       -0.45890000       1.73960000      -0.88290000
H       -0.44540000       1.73460000       0.90580000
H       -2.81170000       0.96360000       0.02690000
H       -3.41670000      -3.09600000       0.01970000
H        0.61890000      -2.76600000      -0.00940000
