18
Properties=species:S:1:pos:R:3 gdb_76052=T pbc="F F F"
C       -0.24280000       1.47150000      -0.06910000
N        0.01280000       0.03670000      -0.00010000
C        1.37780000      -0.46640000      -0.28690000
C        2.46830000       0.42250000      -0.57620000
C        3.38670000       1.15910000      -0.82590000
C        0.79090000      -0.47670000       1.09070000
C        1.32460000       0.21690000       2.34450000
O        0.99930000      -0.94780000       3.13470000
C        0.41650000      -1.63710000       2.00560000
H        0.60110000       2.09520000       0.25540000
H       -0.48760000       1.73670000      -1.10130000
H       -1.11060000       1.69760000       0.55760000
H        1.38070000      -1.39470000      -0.85510000
H        4.19960000       1.80450000      -1.05110000
H        2.39720000       0.44260000       2.35130000
H        0.76530000       1.10480000       2.66780000
H       -0.66380000      -1.79220000       2.12110000
H        0.90650000      -2.59830000       1.80840000
