17
Properties=species:S:1:pos:R:3 gdb_106180=T pbc="F F F"
C       -0.29610000       1.32390000       0.02030000
O        0.24400000       0.01350000      -0.10660000
C        0.75190000      -0.49820000       1.05560000
C        0.88970000      -1.90060000       1.56730000
O        2.26780000      -1.76800000       1.90830000
C        2.17590000      -0.32630000       1.67650000
C        1.92040000       0.32260000       3.02620000
O        0.68570000      -0.26340000       3.47130000
C        0.07710000      -0.85050000       2.34830000
H        0.47970000       2.05870000       0.27450000
H       -0.72370000       1.58210000      -0.95030000
H       -1.08090000       1.35900000       0.78680000
H        0.52370000      -2.86200000       1.22700000
H        2.99760000       0.06070000       1.07320000
H        2.69850000       0.08580000       3.75750000
H        1.82330000       1.41680000       2.93810000
H       -0.99680000      -0.97050000       2.42600000
