17
Properties=species:S:1:pos:R:3 gdb_53827=T pbc="F F F"
C       -0.32690000       1.39400000       0.59950000
C       -0.21320000      -0.06740000       0.24830000
O        0.83080000      -0.64560000       0.05500000
C       -1.54870000      -0.84550000       0.13180000
O       -2.59720000      -0.26690000       0.29360000
C       -1.43530000      -2.31800000      -0.22010000
C       -2.71340000      -3.07820000       0.02770000
C       -2.70460000      -4.52380000       0.27660000
O       -2.88840000      -3.59710000       1.34790000
H        0.66650000       1.83990000       0.64700000
H       -0.94520000       1.91140000      -0.14080000
H       -0.84350000       1.50790000       1.55800000
H       -1.15260000      -2.37200000      -1.28200000
H       -0.59820000      -2.75960000       0.32780000
H       -3.61110000      -2.62840000      -0.39350000
H       -3.57680000      -5.12230000       0.01790000
H       -1.75790000      -5.06320000       0.28230000
