22
Properties=species:S:1:pos:R:3 gdb_26106=T pbc="F F F"
C       -0.01960000       1.53670000      -0.00240000
C       -0.00780000      -0.00380000       0.00770000
C        0.74950000      -0.52660000       1.24330000
C       -1.45320000      -0.51760000       0.04920000
N        0.67170000      -0.48850000      -1.21460000
C        0.14590000      -1.28390000      -2.20880000
C        1.11460000      -1.49810000      -3.16190000
C        2.28050000      -0.80820000      -2.73790000
C        1.97830000      -0.19980000      -1.54260000
H        0.99450000       1.94420000      -0.01680000
H       -0.54730000       1.91070000      -0.88430000
H       -0.52340000       1.91800000       0.89130000
H        0.26050000      -0.18460000       2.16070000
H        0.76880000      -1.62020000       1.24740000
H        1.78260000      -0.17000000       1.25960000
H       -2.03310000      -0.16080000      -0.80650000
H       -1.49280000      -1.61030000       0.06840000
H       -1.93500000      -0.14840000       0.95840000
H       -0.86940000      -1.63630000      -2.16600000
H        0.99360000      -2.08470000      -4.05980000
H        3.23150000      -0.76090000      -3.24640000
H        2.58900000       0.41430000      -0.90160000
