18
Properties=species:S:1:pos:R:3 gdb_9496=T pbc="F F F"
C       -0.03780000       1.49140000      -0.11210000
N       -0.04820000       0.05870000       0.10150000
C       -1.30310000      -0.62200000       0.46870000
C       -0.47550000      -1.61240000       1.31870000
C        0.67790000      -0.55890000       1.23840000
C        2.09030000      -1.04050000       0.91610000
C        0.69050000       0.29490000       2.44610000
N        0.68630000       0.99900000       3.36390000
H        0.98330000       1.83000000      -0.31530000
H       -0.64650000       1.72100000      -0.99240000
H       -0.42940000       2.06690000       0.74340000
H       -1.97330000      -0.00470000       1.08740000
H       -1.86840000      -1.01890000      -0.38020000
H       -0.84700000      -1.85810000       2.31220000
H       -0.20890000      -2.52360000       0.78120000
H        2.05660000      -1.67050000       0.02430000
H        2.75650000      -0.19460000       0.72160000
H        2.50540000      -1.61380000       1.75050000
