17
Properties=species:S:1:pos:R:3 gdb_44141=T pbc="F F F"
O        0.72980000       0.14130000       0.35880000
C        0.34820000       1.26590000       0.27490000
C       -1.01860000       1.95810000       0.18620000
C       -0.20760000       3.23980000       0.00780000
C        0.74390000       3.46950000       1.10240000
C        0.50260000       3.12910000       2.54800000
C        1.07510000       1.91980000       3.20200000
N        1.61190000       3.25240000       3.51110000
N        1.13240000       2.47240000       0.04140000
H       -1.56390000       1.64810000      -0.70840000
H       -1.67640000       1.88340000       1.05480000
H       -0.37960000       3.96970000      -0.77400000
H        1.35280000       4.36370000       0.97320000
H       -0.43360000       3.52530000       2.93790000
H        0.52880000       1.44470000       4.01180000
H        1.67200000       1.24530000       2.59770000
H        2.48450000       3.38440000       3.00270000
