21
Properties=species:S:1:pos:R:3 gdb_121364=T pbc="F F F"
C        0.68160000       1.35450000       0.00730000
C        0.16710000      -0.06970000       0.11800000
O        0.85300000      -0.71700000       1.18410000
C        0.47390000      -2.05910000       1.39770000
O        0.87770000      -2.91030000       0.36170000
C        2.17300000      -3.47670000       0.65820000
C        2.59010000      -2.92890000       2.02730000
C        1.24010000      -2.51950000       2.65180000
O        1.30290000      -1.55300000       3.66690000
H        1.75570000       1.36100000      -0.19890000
H        0.17040000       1.87900000      -0.80540000
H        0.50700000       1.90430000       0.93690000
H       -0.91610000      -0.08000000       0.31880000
H        0.33580000      -0.62300000      -0.81450000
H       -0.61980000      -2.12800000       1.47150000
H        2.06480000      -4.56770000       0.66580000
H        2.87180000      -3.21100000      -0.14160000
H        3.13310000      -3.65850000       2.63060000
H        3.21030000      -2.03380000       1.92480000
H        0.73480000      -3.39740000       3.06840000
H        1.37250000      -0.70390000       3.21010000
