22
Properties=species:S:1:pos:R:3 gdb_6767=T pbc="F F F"
C        0.00070000       1.59930000       0.08010000
C        0.00310000       0.07250000      -0.03270000
C       -1.39800000      -0.54210000       0.05690000
C       -1.39650000      -2.06960000      -0.05590000
C       -2.79540000      -2.67800000       0.03400000
C       -2.82040000      -4.19800000      -0.07580000
C       -4.18860000      -4.85480000       0.00850000
O       -1.81050000      -4.84800000      -0.22160000
H        1.01410000       2.00730000       0.01260000
H       -0.59510000       2.05480000      -0.71900000
H       -0.42620000       1.92550000       1.03520000
H        0.46710000      -0.22520000      -0.98220000
H        0.63470000      -0.35350000       0.75790000
H       -1.86380000      -0.24360000       1.00710000
H       -2.03140000      -0.11530000      -0.73410000
H       -0.93460000      -2.37520000      -1.00180000
H       -0.76770000      -2.50290000       0.73050000
H       -3.28570000      -2.40030000       0.97870000
H       -3.45210000      -2.27290000      -0.75000000
H       -4.84330000      -4.47860000      -0.78570000
H       -4.08670000      -5.93680000      -0.08220000
H       -4.67300000      -4.60900000       0.96030000
