18
Properties=species:S:1:pos:R:3 gdb_23018=T pbc="F F F"
C        0.37930000       1.51660000      -0.03620000
C       -0.01010000       0.06580000       0.08260000
N       -0.30240000      -0.50050000       1.19100000
O       -0.18420000       0.38090000       2.27270000
C       -0.05970000      -0.75120000      -1.15940000
C        1.11130000      -1.58400000      -1.60920000
C       -0.17730000      -2.26970000      -1.19370000
C       -0.17730000      -3.11920000       0.03200000
O       -0.94430000      -4.03540000       0.19630000
H        0.50420000       1.81090000      -1.07960000
H       -0.37620000       2.15250000       0.43460000
H        1.31810000       1.70240000       0.49640000
H       -0.46540000      -0.16690000       3.01350000
H       -0.59660000      -0.25490000      -1.96490000
H        1.38490000      -1.58980000      -2.65800000
H        1.94490000      -1.67420000      -0.91950000
H       -0.81740000      -2.66500000      -1.97540000
H        0.61560000      -2.88400000       0.76910000
