14
Properties=species:S:1:pos:R:3 gdb_4472=T pbc="F F F"
C       -0.04810000       1.52270000       0.12880000
C        0.00810000       0.03850000       0.02310000
C       -0.03180000      -0.72440000      -1.09340000
N       -0.13200000      -0.43460000      -2.44450000
O        0.05350000      -2.07450000      -0.66420000
C        0.13570000      -1.96840000       0.67300000
O        0.22890000      -3.10130000       1.37210000
N        0.11640000      -0.77600000       1.15850000
H        0.85040000       1.91160000       0.62000000
H       -0.13100000       1.97130000      -0.86330000
H       -0.90570000       1.83710000       0.73330000
H        0.67270000      -0.73280000      -2.98570000
H       -0.97170000      -0.80310000      -2.87880000
H        0.22270000      -3.84040000       0.75240000
