22
Properties=species:S:1:pos:R:3 gdb_82573=T pbc="F F F"
C       -0.19280000       1.47240000      -0.05850000
N       -0.00230000       0.06540000       0.25960000
C        1.20570000      -0.65940000      -0.05920000
C        2.48570000       0.17260000       0.15430000
C        2.07790000       0.38290000       1.64210000
C        2.97310000      -0.19520000       2.77260000
C        2.52950000       0.97880000       3.68510000
C        2.03340000       1.72860000       2.41990000
C        0.78430000      -0.41680000       1.37240000
H        0.70570000       2.09880000       0.01560000
H       -0.57320000       1.54620000      -1.08260000
H       -0.95160000       1.88610000       0.61330000
H        1.12690000      -1.55730000      -0.66330000
H        3.39500000      -0.42830000       0.06690000
H        2.59870000       1.06510000      -0.47010000
H        2.75510000      -1.21370000       3.10810000
H        4.03500000      -0.13640000       2.51330000
H        1.70270000       0.69720000       4.34290000
H        3.29980000       1.46350000       4.28910000
H        2.78080000       2.43470000       2.04230000
H        1.07260000       2.24410000       2.48520000
H        0.30930000      -1.08730000       2.08360000
