16
Properties=species:S:1:pos:R:3 gdb_3214=T pbc="F F F"
C       -0.20590000       1.59120000       0.04460000
C        0.03080000       0.09260000       0.01970000
C        1.09730000      -0.51430000      -0.95500000
O        1.93380000       0.35500000      -1.69010000
C        1.76980000      -1.09130000       0.27690000
C        2.09690000      -0.02310000       1.23930000
N        0.71260000      -0.52730000       1.21990000
H        0.72480000       2.16180000       0.01330000
H       -0.80700000       1.89450000      -0.82000000
H       -0.75680000       1.86990000       0.94870000
H       -0.92430000      -0.42910000      -0.09410000
H        0.66600000      -1.28740000      -1.60250000
H        1.45270000       0.64980000      -2.47010000
H        2.14030000      -2.10590000       0.37450000
H        2.62870000      -0.31750000       2.13880000
H        2.32830000       0.97480000       0.88220000
