20
Properties=species:S:1:pos:R:3 gdb_82920=T pbc="F F F"
C       -0.10310000       1.47420000      -0.02990000
C       -0.02870000      -0.02870000      -0.14680000
C        0.87190000      -0.70430000      -1.12100000
N        1.21920000      -0.64950000       0.31990000
C        1.12530000      -2.02690000       0.85820000
C        0.71320000      -2.94690000      -0.27860000
O       -0.58950000      -2.66810000      -0.81390000
C        0.56100000      -2.13800000      -1.50220000
C        0.78610000      -2.61590000      -2.90940000
H        0.86580000       1.92920000      -0.25290000
H       -0.84860000       1.88110000      -0.72170000
H       -0.38820000       1.76920000       0.98580000
H       -0.94970000      -0.56630000       0.06340000
H        1.49700000      -0.13140000      -1.80210000
H        2.11550000      -2.32010000       1.22700000
H        0.42770000      -2.06900000       1.70160000
H        1.00570000      -3.99600000      -0.28130000
H        0.12060000      -2.09560000      -3.60670000
H        1.81760000      -2.42420000      -3.22310000
H        0.58890000      -3.68760000      -2.98620000
