21
Properties=species:S:1:pos:R:3 gdb_121381=T pbc="F F F"
C       -0.03850000       1.51530000      -0.06640000
C        0.05520000       0.00150000       0.02510000
O        0.63180000      -0.48180000      -1.17340000
C        0.74400000      -1.89620000      -1.25200000
C        0.79430000      -2.25250000      -2.74100000
O        1.11790000      -3.61760000      -2.92050000
C        2.42300000      -3.93820000      -2.47820000
C        2.77120000      -3.32040000      -1.15310000
C        1.99620000      -2.40460000      -0.57800000
H        0.95570000       1.95480000      -0.18710000
H       -0.64870000       1.80940000      -0.92510000
H       -0.49220000       1.92500000       0.84100000
H        0.66000000      -0.28940000       0.89900000
H       -0.94500000      -0.44170000       0.16610000
H       -0.14860000      -2.35910000      -0.79860000
H       -0.17800000      -2.09350000      -3.21310000
H        1.52900000      -1.59330000      -3.22950000
H        2.46480000      -5.03250000      -2.41740000
H        3.17240000      -3.63440000      -3.23330000
H        3.69830000      -3.65050000      -0.69090000
H        2.25990000      -1.97160000       0.38290000
