23
Properties=species:S:1:pos:R:3 gdb_83365=T pbc="F F F"
C       -0.14280000       1.52800000       0.02750000
C        0.06060000       0.01560000       0.01130000
C        1.05190000      -0.57620000      -1.01940000
C        2.41950000      -0.04810000      -0.51840000
C        2.25250000      -0.05860000       1.03160000
C        0.81010000      -0.59000000       1.22380000
O        0.20810000      -0.26020000       2.45570000
C        0.79750000      -2.09510000       0.86550000
C        0.96690000      -2.08580000      -0.68680000
H        0.79890000       2.08310000       0.06430000
H       -0.68340000       1.85590000      -0.86660000
H       -0.73030000       1.81800000       0.90370000
H       -0.92110000      -0.46490000      -0.08310000
H        0.84810000      -0.34560000      -2.06730000
H        3.24560000      -0.67800000      -0.86120000
H        2.61560000       0.96220000      -0.88810000
H        2.98860000      -0.69510000       1.53430000
H        2.33870000       0.94330000       1.46080000
H        0.74150000      -0.63890000       3.16190000
H        1.59150000      -2.64910000       1.37780000
H       -0.15890000      -2.53050000       1.16880000
H        0.10360000      -2.54450000      -1.17800000
H        1.85530000      -2.63070000      -1.01940000
