14
Properties=species:S:1:pos:R:3 gdb_45354=T pbc="F F F"
O        0.04980000      -0.00450000      -0.15100000
C        0.01270000       1.18400000      -0.04320000
N       -1.00630000       2.09560000       0.09970000
C       -0.15930000       3.29200000       0.07600000
C        0.01510000       4.01460000       1.41600000
O        1.03480000       3.31120000       2.13650000
C        1.75360000       2.46850000       1.33400000
O        2.74390000       1.91840000       1.70840000
C        1.06460000       2.35090000      -0.01500000
H       -2.00670000       1.97300000       0.16140000
H       -0.35440000       3.96420000      -0.76180000
H        0.34120000       5.05020000       1.26760000
H       -0.89500000       4.01220000       2.02180000
H        1.75140000       2.39750000      -0.85660000
