20
Properties=species:S:1:pos:R:3 gdb_47525=T pbc="F F F"
O        0.01490000      -0.09190000      -0.20690000
C        0.01520000       1.11750000      -0.05530000
N       -1.17070000       1.79640000       0.12470000
C       -1.44170000       3.21610000      -0.08690000
C       -0.58080000       4.18330000       0.73740000
C        0.93690000       3.96220000       0.63690000
C        1.39230000       3.27170000      -0.68210000
C        1.31610000       1.89720000       0.05200000
C        1.41800000       2.69150000       1.39140000
H       -1.96070000       1.17620000       0.01360000
H       -1.35520000       3.47400000      -1.15250000
H       -2.49050000       3.37620000       0.17960000
H       -0.82930000       5.19280000       0.38790000
H       -0.87750000       4.13310000       1.79220000
H        1.45490000       4.88850000       0.89850000
H        0.79890000       3.41720000      -1.58770000
H        2.43300000       3.50860000      -0.91650000
H        2.11010000       1.18280000      -0.16120000
H        2.45860000       2.77950000       1.71370000
H        0.81260000       2.34080000       2.23120000
