19
Properties=species:S:1:pos:R:3 gdb_78914=T pbc="F F F"
O        0.11230000       1.43210000       0.18540000
C        0.04170000       0.02110000       0.06800000
C       -1.35590000      -0.53100000      -0.15110000
C       -1.60640000      -0.57530000      -1.65260000
C       -1.23650000      -1.83920000      -0.89790000
C        0.21750000      -2.03010000      -1.38560000
C        0.12670000      -1.73400000      -2.91050000
C       -0.28850000      -0.31840000      -2.41040000
C        0.68010000      -0.54970000      -1.19540000
H       -0.38740000       1.80490000      -0.54970000
H        0.50710000      -0.37290000       0.97830000
H       -2.15950000      -0.34650000       0.55170000
H       -2.58210000      -0.41230000      -2.09010000
H       -1.92080000      -2.66450000      -0.75290000
H        0.78210000      -2.87200000      -0.98500000
H        1.10490000      -1.73830000      -3.40030000
H       -0.59550000      -2.30140000      -3.50520000
H       -0.22680000       0.56190000      -3.05130000
H        1.73320000      -0.33860000      -1.37140000
