19
Properties=species:S:1:pos:R:3 gdb_39514=T pbc="F F F"
C       -0.05790000       1.47720000       0.16730000
C        1.40000000       1.88750000       0.11600000
C        2.17390000       0.92080000      -0.39700000
C        3.50770000       0.51900000       0.10690000
C        3.39500000      -0.39260000       1.08340000
C        2.01130000      -0.84640000       1.54360000
C        1.01220000      -1.00950000       0.36990000
C        0.00290000       0.00250000      -0.22760000
C        1.33680000      -0.24160000      -0.87410000
H       -0.45110000       1.64250000       1.17960000
H       -0.71840000       2.03550000      -0.51240000
H        1.77850000       2.73810000       0.67350000
H        4.45660000       0.89530000      -0.25990000
H        4.26680000      -0.81360000       1.57690000
H        2.09140000      -1.79770000       2.07910000
H        1.62980000      -0.12510000       2.27870000
H        0.67230000      -2.03260000       0.22950000
H       -0.89560000      -0.45220000      -0.63150000
H        1.51680000      -0.70650000      -1.83760000
