16
Properties=species:S:1:pos:R:3 gdb_71100=T pbc="F F F"
O        0.17400000       1.42800000       0.11930000
C        0.02580000       0.06670000       0.03460000
C        0.49190000      -0.77120000      -1.18500000
C       -0.50360000      -1.82070000      -0.69890000
N       -0.52310000      -1.85480000       0.80230000
C        0.45450000      -0.79490000       1.21980000
C       -1.32500000      -0.82950000       0.05010000
C       -2.70220000      -0.55640000       0.17090000
C       -3.86760000      -0.26600000       0.25880000
H       -0.07080000       1.82790000      -0.72240000
H        0.15800000      -0.33680000      -2.13260000
H        1.55530000      -1.02670000      -1.24180000
H       -0.84000000      -2.71700000      -1.20270000
H        1.50060000      -1.11750000       1.26910000
H        0.13440000      -0.38590000       2.18020000
H       -4.89760000      -0.02350000       0.34510000
