18
Properties=species:S:1:pos:R:3 gdb_50669=T pbc="F F F"
O        0.40210000      -0.23490000      -0.43400000
C        0.10450000       0.89400000      -0.15060000
C        1.11500000       2.02380000       0.05480000
O        2.39940000       1.52460000       0.34060000
C        3.25820000       1.64970000      -0.80550000
C        2.36510000       2.08380000      -1.97540000
C        1.25230000       2.81790000      -1.24800000
C        0.14430000       3.57330000      -1.87450000
N        1.28010000       4.28440000      -1.25580000
H       -0.95980000       1.21300000      -0.05160000
H        0.76330000       2.65700000       0.88320000
H        4.02560000       2.40450000      -0.59040000
H        3.75100000       0.68810000      -0.97390000
H        2.87480000       2.73140000      -2.68980000
H        1.96520000       1.21070000      -2.50000000
H        0.08630000       3.65210000      -2.95640000
H       -0.82000000       3.59430000      -1.37220000
H        1.00830000       4.65720000      -0.34890000
