19
Properties=species:S:1:pos:R:3 gdb_96894=T pbc="F F F"
C       -0.07400000       1.34120000      -0.07240000
N       -0.04050000      -0.11290000      -0.07990000
C        0.71600000      -0.69930000      -0.89700000
N        1.58360000      -0.27530000      -1.97120000
C        1.51810000      -1.66630000      -2.53870000
C        1.30570000      -1.91120000      -3.99520000
C        2.23970000      -2.54300000      -1.55630000
C        0.81810000      -2.14820000      -1.24220000
O       -0.12880000      -3.09180000      -0.93100000
H        0.73920000       1.81590000      -0.63880000
H       -1.03180000       1.69400000      -0.47500000
H       -0.01790000       1.69310000       0.96280000
H        1.16410000       0.43310000      -2.56710000
H        2.17440000      -1.59240000      -4.58400000
H        1.14830000      -2.97730000      -4.18150000
H        0.42790000      -1.36970000      -4.36770000
H        2.31020000      -3.58690000      -1.85110000
H        3.08110000      -2.16130000      -0.98340000
H       -0.95320000      -2.61630000      -0.76780000
