16
Properties=species:S:1:pos:R:3 gdb_52012=T pbc="F F F"
O       -0.12380000      -0.05680000      -0.08890000
C       -0.02590000       1.14110000      -0.04960000
C        1.28350000       1.90140000      -0.06790000
C        1.33070000       2.90300000      -1.23080000
C        2.60610000       3.79430000      -1.21340000
C        2.66950000       4.66270000      -2.38900000
C        2.69920000       5.35150000      -3.37110000
C        2.67400000       4.58330000       0.02880000
N        2.70790000       5.17480000       1.02030000
H       -0.93070000       1.79100000       0.00350000
H        1.36250000       2.44680000       0.88310000
H        2.10410000       1.18000000      -0.12150000
H        1.32010000       2.37560000      -2.18910000
H        0.45300000       3.55720000      -1.21220000
H        3.48350000       3.13250000      -1.21600000
H        2.73440000       5.96880000      -4.23520000
