23
Properties=species:S:1:pos:R:3 gdb_120904=T pbc="F F F"
C        0.32710000       1.64720000      -0.69480000
C        0.39470000       0.16640000      -0.37780000
C        1.62320000      -0.69670000      -0.44540000
C        2.85630000       0.01940000       0.12640000
C        2.13530000       0.11690000       1.51750000
C        2.05600000       1.43310000       2.28780000
C        3.40060000       1.84940000       2.87200000
O        3.21930000       3.07510000       3.56640000
C        0.87750000      -0.50130000       0.88720000
H        1.25740000       2.17320000      -0.47250000
H        0.11950000       1.79400000      -1.76090000
H       -0.47390000       2.13780000      -0.13090000
H       -0.47350000      -0.36960000      -0.76090000
H        1.66740000      -1.58130000      -1.07000000
H        3.74890000      -0.60880000       0.15560000
H        3.12450000       0.96690000      -0.35360000
H        2.58270000      -0.63720000       2.17670000
H        1.68860000       2.24660000       1.65550000
H        1.33750000       1.33150000       3.11120000
H        3.77180000       1.06020000       3.54730000
H        4.14190000       1.95710000       2.06290000
H        4.06870000       3.34380000       3.92830000
H        0.23660000      -1.20560000       1.40730000
