19
Properties=species:S:1:pos:R:3 gdb_22452=T pbc="F F F"
C       -0.01530000       1.54350000       0.03180000
N       -0.12710000       0.10220000       0.24950000
H        0.53030000      -1.84470000      -0.33210000
H        0.12250000      -0.09950000       1.21340000
C       -1.45030000      -0.48620000      -0.00460000
C       -1.94890000      -0.15230000      -1.42130000
C       -1.35630000      -1.98860000       0.19560000
C       -2.51860000      -2.75920000       0.62920000
O       -2.58600000      -3.95980000       0.76920000
N       -0.18720000      -2.55130000      -0.07800000
O        0.15730000      -3.74600000      -0.04500000
H        0.95390000       1.87950000       0.40930000
H       -0.05020000       1.77310000      -1.03600000
H       -0.80270000       2.13010000       0.53380000
H       -2.20780000      -0.10810000       0.70660000
H       -1.20550000      -0.45060000      -2.16770000
H       -2.87470000      -0.69610000      -1.62650000
H       -2.15630000       0.91480000      -1.53660000
H       -3.39620000      -2.10460000       0.84470000
