18
Properties=species:S:1:pos:R:3 gdb_68397=T pbc="F F F"
O       -0.19450000       1.38270000      -0.00240000
C        0.02640000       0.00080000       0.00450000
C        0.96040000      -0.70980000      -1.01780000
N        1.22870000      -1.75360000       0.03420000
C        0.90070000      -0.70430000       1.06730000
C        0.15560000      -2.76920000       0.00030000
C       -1.25010000      -2.17650000      -0.08670000
O       -1.73740000      -1.46620000       1.06500000
C       -1.32180000      -0.71020000      -0.07370000
H        0.65880000       1.82640000       0.04950000
H        0.53730000      -1.07520000      -1.95850000
H        1.87940000      -0.14800000      -1.21990000
H        1.80550000      -0.13370000       1.30710000
H        0.42090000      -1.06160000       1.97780000
H        0.32320000      -3.40520000      -0.87680000
H        0.24940000      -3.40600000       0.88670000
H       -2.01200000      -2.76150000      -0.60110000
H       -2.10780000      -0.16450000      -0.59170000
