18
Properties=species:S:1:pos:R:3 gdb_14103=T pbc="F F F"
C       -0.30090000       1.44620000       0.05560000
C        0.13200000      -0.00240000      -0.03660000
O        1.36440000      -0.16840000      -0.79410000
C        2.02740000      -0.82240000       0.30740000
C        0.79060000      -0.65890000       1.17850000
C        0.67250000      -0.27980000       2.63000000
C        0.16010000      -1.61310000       2.12960000
O       -1.21570000      -1.80330000       1.96770000
H        0.47830000       2.06050000       0.51640000
H       -0.50770000       1.83990000      -0.94450000
H       -1.21680000       1.53210000       0.65040000
H       -0.67010000      -0.61460000      -0.46910000
H        2.30730000      -1.85750000       0.06800000
H        2.92280000      -0.27580000       0.63210000
H        1.57150000      -0.26350000       3.23930000
H       -0.07050000       0.46810000       2.88960000
H        0.72310000      -2.50740000       2.40220000
H       -1.60830000      -1.91230000       2.84020000
