18
Properties=species:S:1:pos:R:3 gdb_77020=T pbc="F F F"
C       -0.10440000       1.57790000       0.14260000
C       -0.00210000       0.07580000       0.00210000
C        0.57040000      -0.60520000      -1.21160000
C        1.10600000       0.18330000      -2.39740000
C        1.89410000      -0.65690000      -3.30060000
N        2.50280000      -1.33120000      -4.01460000
C        1.33940000      -0.65220000       0.10840000
C        2.55740000       0.08660000       0.26430000
C        3.58130000       0.70590000       0.39330000
H        0.79070000       2.08890000      -0.21860000
H       -0.96880000       1.96470000      -0.40780000
H       -0.22950000       1.85250000       1.19470000
H       -0.82470000      -0.46310000       0.46450000
H        0.10290000      -1.54270000      -1.49560000
H        0.27930000       0.61990000      -2.97050000
H        1.73940000       1.00940000      -2.06190000
H        1.32620000      -1.60770000       0.62390000
H        4.49220000       1.23880000       0.51190000
