20
Properties=species:S:1:pos:R:3 gdb_8336=T pbc="F F F"
O        0.82020000       0.42520000      -0.87180000
C        0.01320000      -0.30700000       0.01480000
C        0.13520000      -0.09000000       1.54620000
C       -1.39980000      -0.31790000       1.64420000
C       -1.85190000      -1.69820000       2.20140000
C       -2.25000000      -0.99170000       3.52520000
C       -2.22530000       0.36110000       2.76260000
C       -1.50350000      -0.00210000       0.13320000
H        0.69830000       1.36070000      -0.67820000
H        0.17810000      -1.35730000      -0.24270000
H        0.80160000      -0.74470000       2.11460000
H        0.39340000       0.95350000       1.76650000
H       -2.72710000      -2.08000000       1.66560000
H       -1.10230000      -2.49330000       2.25220000
H       -3.19010000      -1.29180000       3.99330000
H       -1.45610000      -1.05130000       4.27470000
H       -1.77310000       1.22300000       3.26240000
H       -3.22150000       0.64830000       2.40960000
H       -1.69650000       1.06530000      -0.03460000
H       -2.20340000      -0.58470000      -0.47260000
