14
Properties=species:S:1:pos:R:3 gdb_45963=T pbc="F F F"
N       -0.24260000       1.32170000      -0.17970000
C       -0.04690000       0.07150000      -0.15880000
O        1.16720000      -0.48280000      -0.41330000
C        1.35860000      -1.90510000      -0.46200000
C        0.13600000      -2.68820000      -0.93830000
O        0.20550000      -3.58480000      -1.74170000
C       -1.13780000      -2.25480000      -0.28900000
O       -0.96780000      -1.87180000       1.08200000
C       -1.19520000      -0.83440000       0.13570000
H        0.62020000       1.81700000      -0.41430000
H        2.18150000      -2.08210000      -1.15530000
H        1.63970000      -2.26900000       0.53420000
H       -2.04440000      -2.79930000      -0.53860000
H       -2.15370000      -0.32950000       0.20530000
