16
Properties=species:S:1:pos:R:3 gdb_38330=T pbc="F F F"
C       -0.15490000       1.53890000       0.08290000
C        1.37210000       1.27620000       0.09080000
O        1.13660000       0.16420000       1.03980000
C        0.09230000       0.01160000       0.00120000
C        1.17180000       0.27880000      -1.07890000
C        0.86880000       0.68880000      -2.53920000
N        1.75430000      -0.14910000      -3.36410000
C        2.40010000      -0.86110000      -2.53910000
O        2.17920000      -0.73150000      -1.20860000
H       -0.54620000       1.86670000       1.04480000
H       -0.60760000       2.05720000      -0.76560000
H        2.20210000       1.95330000       0.29250000
H       -0.60510000      -0.82080000       0.09600000
H       -0.17610000       0.50950000      -2.81500000
H        1.07720000       1.74770000      -2.72740000
H        3.14950000      -1.60130000      -2.79590000
