17
Properties=species:S:1:pos:R:3 gdb_44480=T pbc="F F F"
O        0.02250000       0.01930000       0.15890000
C       -0.02840000       1.21300000       0.02970000
C       -1.31270000       2.06900000      -0.07950000
C       -0.77270000       3.42860000      -0.50660000
C        0.14660000       4.22960000       0.47520000
C        0.96480000       3.13520000       1.18480000
C        1.12930000       2.19690000      -0.06690000
C        0.63810000       3.24320000      -1.12650000
O        1.02650000       4.54630000      -0.64340000
H       -1.97730000       1.62890000      -0.83000000
H       -1.85870000       2.06910000       0.86960000
H       -1.43510000       4.07500000      -1.07950000
H       -0.18530000       5.09940000       1.04140000
H        1.92380000       3.52940000       1.52460000
H        0.45720000       2.65640000       2.02660000
H        2.10690000       1.74070000      -0.20040000
H        0.84430000       3.06420000      -2.18080000
