16
Properties=species:S:1:pos:R:3 gdb_48501=T pbc="F F F"
O       -0.08250000       0.02460000      -0.02680000
C        0.05860000       1.22420000      -0.05090000
C        1.36490000       1.89380000       0.00350000
C        1.76740000       3.15220000       0.71560000
C        3.23960000       2.74390000       0.47080000
C        3.02750000       3.09930000      -1.03480000
C        3.31350000       1.65010000      -1.45560000
C        2.78610000       1.31280000      -0.04040000
N        1.52950000       3.21180000      -0.74020000
H       -0.80590000       1.92130000      -0.10730000
H        1.23780000       3.76040000       1.43960000
H        4.12120000       2.93800000       1.07440000
H        3.41470000       3.97770000      -1.54790000
H        2.79010000       1.24190000      -2.32380000
H        4.38990000       1.47250000      -1.54010000
H        2.98250000       0.37940000       0.47980000
