18
Properties=species:S:1:pos:R:3 gdb_94793=T pbc="F F F"
C       -0.02070000       1.42310000      -0.01040000
N       -0.03360000      -0.01880000       0.05110000
C       -1.21140000      -0.79880000      -0.29860000
C       -0.82190000      -2.25410000       0.05580000
C        0.69250000      -2.21440000       0.12570000
C        1.58360000      -3.28110000       0.58170000
O        1.46510000      -2.97580000      -0.80940000
C        1.09950000      -0.75720000       0.25330000
O        2.21330000      -0.33120000       0.47950000
H        0.98350000       1.75640000       0.25720000
H       -0.26120000       1.78000000      -1.02030000
H       -0.74770000       1.85290000       0.68890000
H       -2.08320000      -0.45310000       0.26850000
H       -1.44920000      -0.68540000      -1.36600000
H       -1.24150000      -2.53020000       1.02760000
H       -1.16940000      -2.97580000      -0.68500000
H        2.53320000      -3.00440000       1.03540000
H        1.15640000      -4.23450000       0.89080000
