17
Properties=species:S:1:pos:R:3 gdb_69090=T pbc="F F F"
C       -0.12670000       1.57180000      -0.00750000
C        0.13900000       0.09740000      -0.00000000
C       -0.65050000      -0.89270000       0.82810000
C        0.84390000      -0.68230000       1.09190000
O        1.72780000      -1.57010000       0.44000000
C        1.35200000      -1.58710000      -0.92570000
O        0.68490000      -0.37360000      -1.21000000
C        1.33270000      -0.13370000       2.31480000
C        1.71120000       0.34780000       3.34960000
H        0.76520000       2.11410000      -0.33360000
H       -0.94890000       1.81400000      -0.68840000
H       -0.39530000       1.91330000       0.99510000
H       -1.32630000      -0.47820000       1.56750000
H       -0.96670000      -1.83650000       0.39830000
H        2.24960000      -1.66110000      -1.54710000
H        0.68840000      -2.44440000      -1.12470000
H        2.05550000       0.76730000       4.26230000
