18
Properties=species:S:1:pos:R:3 gdb_65582=T pbc="F F F"
C        0.44150000       1.30940000       0.03070000
C       -0.12600000      -0.12720000      -0.00340000
C        0.43630000      -0.93560000      -1.22730000
C        1.59080000      -1.73650000      -0.66690000
O        2.51430000      -0.96340000       0.11390000
C        1.52320000      -1.74460000       0.79790000
C        0.32160000      -0.94920000       1.25820000
C       -1.58880000      -0.05610000      -0.07060000
N       -2.74250000      -0.00020000      -0.12350000
H        1.53000000       1.26270000       0.08070000
H        0.14660000       1.86150000      -0.86620000
H        0.06500000       1.85190000       0.90250000
H       -0.31770000      -1.62310000      -1.62400000
H        0.73380000      -0.26530000      -2.03860000
H        2.03140000      -2.54350000      -1.24650000
H        1.90890000      -2.55800000       1.40670000
H        0.54270000      -0.28800000       2.10070000
H       -0.46540000      -1.64060000       1.57620000
