12
Properties=species:S:1:pos:R:3 gdb_9999=T pbc="F F F"
O       -0.06790000       0.01600000       0.13840000
C        0.00030000       1.20360000       0.16890000
O        1.13700000       1.86720000      -0.16820000
C        1.12840000       3.27860000      -0.00090000
C        1.21650000       3.65500000       1.49680000
O        0.97210000       2.87440000       2.37080000
C        2.22620000       3.87430000      -0.74440000
C        3.14360000       4.41140000      -1.30150000
H       -0.83400000       1.87880000       0.43360000
H        0.17390000       3.70180000      -0.36070000
H        1.49630000       4.71170000       1.68340000
H        3.95210000       4.87240000      -1.81470000
