16
Properties=species:S:1:pos:R:3 gdb_29036=T pbc="F F F"
C       -0.61180000       1.42570000       0.03190000
C       -0.04900000       0.03970000      -0.01750000
N        0.16940000      -0.54000000      -1.14150000
C        0.52800000      -1.85230000      -1.29790000
C        0.16650000      -2.90410000      -0.51290000
C       -0.52330000      -2.77080000       0.74210000
N       -0.51480000      -1.76020000       1.54650000
C        0.26170000      -0.63270000       1.29070000
N        1.10360000      -0.10480000       2.08410000
H        0.06930000       2.07310000       0.59340000
H       -0.76330000       1.81340000      -0.97590000
H       -1.56500000       1.42630000       0.57360000
H        1.04010000      -2.05180000      -2.23650000
H        0.31820000      -3.90850000      -0.89660000
H       -1.12220000      -3.62530000       1.06520000
H        1.19610000      -0.68210000       2.92480000
