19
Properties=species:S:1:pos:R:3 gdb_107637=T pbc="F F F"
C       -0.17600000       1.38790000       0.48360000
O       -0.05780000       0.09680000      -0.10010000
C       -1.25880000      -0.58690000      -0.18910000
C       -1.83780000      -1.28170000       1.04220000
C       -1.29190000      -2.07510000      -0.12850000
O       -2.19100000      -2.60050000      -1.07020000
C       -3.01740000      -1.53270000      -1.52700000
C       -2.25580000      -0.20550000      -1.27590000
O       -3.11320000       0.88940000      -0.99960000
H        0.82750000       1.81850000       0.49780000
H       -0.84480000       2.03440000      -0.09620000
H       -0.55440000       1.32520000       1.51410000
H       -1.21460000      -1.25950000       1.92940000
H       -2.90620000      -1.27500000       1.23660000
H       -0.40200000      -2.68020000      -0.00680000
H       -3.24620000      -1.70590000      -2.58130000
H       -3.97010000      -1.50610000      -0.97560000
H       -1.68360000       0.09610000      -2.15880000
H       -3.51800000       0.73360000      -0.13850000
