13
Properties=species:S:1:pos:R:3 gdb_2634=T pbc="F F F"
O        0.14600000       0.04300000      -0.21070000
C        0.17840000       1.23470000      -0.24610000
O        0.87610000       1.97240000       0.64120000
C        0.88000000       3.39240000       0.48220000
C        2.26270000       3.85720000       0.00170000
C        2.33110000       5.30800000      -0.10310000
C        2.34650000       6.50700000      -0.17760000
H       -0.35610000       1.85650000      -0.99170000
H        0.10290000       3.70370000      -0.22580000
H        0.64830000       3.82630000       1.45770000
H        3.02040000       3.48560000       0.70120000
H        2.47970000       3.39430000      -0.96890000
H        2.37930000       7.56620000      -0.24820000
