21
Properties=species:S:1:pos:R:3 gdb_111629=T pbc="F F F"
C       -0.49530000       0.99790000      -0.11700000
O        0.45820000      -0.02040000       0.10380000
C        0.88290000      -0.63730000      -1.06280000
C        1.40400000      -2.03220000      -0.97080000
C        1.03470000      -2.83860000       0.27770000
C       -0.46690000      -2.98060000       0.18770000
C       -0.97720000      -2.42220000      -0.91490000
C       -2.41300000      -2.40230000      -1.34110000
C        0.09500000      -1.76710000      -1.72570000
H       -0.09470000       1.79270000      -0.76500000
H       -1.41020000       0.60250000      -0.57910000
H       -0.74150000       1.42670000       0.85720000
H        1.39720000       0.03420000      -1.75440000
H        2.32320000      -2.26910000      -1.49390000
H        1.53780000      -3.81420000       0.28180000
H        1.34070000      -2.32070000       1.19530000
H       -1.05220000      -3.46310000       0.96350000
H       -3.04790000      -2.94090000      -0.63230000
H       -2.79640000      -1.37820000      -1.43150000
H       -2.53890000      -2.86720000      -2.32760000
H        0.03180000      -1.77270000      -2.81000000
