11
Properties=species:S:1:pos:R:3 gdb_130570=T pbc="F F F"
O        0.03770000      -0.03760000       0.00290000
C       -0.04280000       1.16940000       0.00670000
C        1.17660000       2.00180000       0.00080000
N        2.15790000       2.61210000      -0.00420000
C       -1.31520000       1.89270000       0.01690000
N       -1.39310000       3.23160000       0.02100000
N       -2.68680000       3.45010000       0.02990000
N       -3.48380000       2.37970000       0.03250000
C       -2.62490000       1.36750000       0.02420000
H       -3.06420000       4.38630000       0.03480000
H       -2.95280000       0.34140000       0.02370000
