17
Properties=species:S:1:pos:R:3 gdb_24609=T pbc="F F F"
C        0.08460000       1.39510000      -0.29350000
C        1.51220000       1.50530000       0.27260000
C        1.28200000       0.03800000       0.73410000
O        0.01040000      -0.00760000       0.04280000
C        2.22140000      -1.01700000       0.26450000
C        2.04270000      -1.83330000      -0.80880000
O        3.10110000      -2.67600000      -0.95400000
C        3.97390000      -2.38770000       0.04550000
C        3.49320000      -1.38680000       0.82630000
H       -0.67270000       1.98060000       0.24340000
H       -0.03430000       1.56360000      -1.36950000
H        2.29290000       1.60510000      -0.48230000
H        1.66900000       2.23970000       1.06380000
H        1.13530000      -0.04010000       1.82150000
H        1.24050000      -1.94180000      -1.51730000
H        4.87600000      -2.97670000       0.06490000
H        3.97540000      -0.96000000       1.69240000
