12
Properties=species:S:1:pos:R:3 gdb_129099=T pbc="F F F"
N       -0.13540000       1.37080000       0.30380000
C        0.01010000       0.13760000       0.02360000
C        1.28030000      -0.56780000      -0.20810000
N        1.52360000      -1.67960000      -0.80820000
O        0.67230000      -2.44340000      -1.43050000
N       -0.92320000      -1.97110000      -1.99370000
N       -1.56690000      -1.24470000      -1.32380000
C       -1.23940000      -0.70070000      -0.00880000
N       -1.98520000      -0.89550000       0.97920000
H        0.76880000       1.85130000       0.31010000
H        2.16500000      -0.09380000       0.21070000
H       -2.81650000      -1.44040000       0.73940000
