17
Properties=species:S:1:pos:R:3 gdb_54049=T pbc="F F F"
C       -0.16890000       1.47640000      -0.12140000
C       -0.02700000      -0.02230000      -0.00220000
O        0.00330000      -0.60990000       1.05220000
C        0.08520000      -0.79760000      -1.33490000
C        0.65820000      -2.20860000      -1.11510000
C        0.80560000      -2.94230000      -2.36610000
C        0.91270000      -3.51590000      -3.41700000
C       -1.30340000      -0.85000000      -1.98070000
O       -1.86320000       0.10200000      -2.45760000
H        0.78950000       1.89990000      -0.44620000
H       -0.90470000       1.72950000      -0.89020000
H       -0.44160000       1.90500000       0.84360000
H        0.71650000      -0.21500000      -2.01480000
H        1.62320000      -2.12960000      -0.60380000
H        0.00500000      -2.75210000      -0.42320000
H        1.01370000      -4.03890000      -4.33570000
H       -1.78280000      -1.85170000      -1.95580000
