17
Properties=species:S:1:pos:R:3 gdb_13965=T pbc="F F F"
O       -0.59770000       0.53800000       0.56340000
C        0.23790000       0.84600000      -0.24560000
C        1.23860000       1.97350000      -0.07280000
C        1.17300000       2.95340000      -1.21580000
C        1.88010000       2.75980000      -2.50170000
N        2.34490000       3.84040000      -1.61090000
C        1.36220000       4.96550000      -1.81680000
C        0.16900000       4.10380000      -1.33040000
H        0.32880000       0.30240000      -1.21450000
H        1.05830000       2.46010000       0.89050000
H        2.24370000       1.53020000      -0.05300000
H        2.58710000       1.93860000      -2.57390000
H        1.39310000       3.02040000      -3.43990000
H        1.60600000       5.79960000      -1.15670000
H        1.32880000       5.32630000      -2.85000000
H       -0.67550000       3.95390000      -2.00910000
H       -0.21550000       4.42750000      -0.36100000
