20
Properties=species:S:1:pos:R:3 gdb_72611=T pbc="F F F"
C       -0.16990000       1.57270000      -0.11000000
C       -0.03640000       0.07300000       0.00310000
C        0.97940000      -0.67010000      -0.88770000
O        1.54770000      -1.38800000       0.22600000
C        0.68000000      -0.73010000       1.17720000
C        1.40910000      -0.16450000       2.36360000
C       -0.60960000      -1.53030000       1.36130000
N       -1.66050000      -0.53040000       1.67360000
C       -1.27730000      -0.78050000       0.26180000
H        0.80380000       2.06810000      -0.03020000
H       -0.60390000       1.85490000      -1.07750000
H       -0.81990000       1.95920000       0.67960000
H        0.56610000      -1.34060000      -1.65210000
H        1.72310000      -0.01300000      -1.35750000
H        2.15740000       0.57100000       2.05320000
H        0.70080000       0.31220000       3.04620000
H        1.92960000      -0.96630000       2.89990000
H       -0.70340000      -2.56960000       1.65280000
H       -2.52220000      -1.04540000       1.85070000
H       -2.00940000      -1.12230000      -0.46150000
