19
Properties=species:S:1:pos:R:3 gdb_53510=T pbc="F F F"
C        0.10540000       1.48360000      -0.06730000
C        0.04850000       0.02990000      -0.01210000
C        0.00170000      -1.17220000       0.02620000
C       -0.07220000      -2.62560000       0.08390000
C       -1.52380000      -3.16590000       0.05810000
O       -2.21100000      -2.78160000      -1.11170000
C       -1.51780000      -4.68180000       0.19630000
C       -2.60840000      -5.50170000      -0.33570000
O       -1.36440000      -5.38160000      -1.04690000
H        0.92000000       1.82610000      -0.71520000
H       -0.82750000       1.90180000      -0.46140000
H        0.26890000       1.91700000       0.92580000
H        0.47420000      -3.07120000      -0.75880000
H        0.42160000      -2.99000000       0.99540000
H       -2.07420000      -2.72920000       0.89980000
H       -1.87900000      -3.35900000      -1.81350000
H       -0.91670000      -5.08350000       1.01300000
H       -2.79990000      -6.48470000       0.08980000
H       -3.45430000      -5.00860000      -0.80730000
