18
Properties=species:S:1:pos:R:3 gdb_95012=T pbc="F F F"
O        0.12250000       1.43350000      -0.16510000
C        0.08400000       0.01820000      -0.01820000
C        0.75800000      -0.46340000       1.26570000
O       -0.11260000      -0.31410000       2.38390000
C       -1.41410000      -0.76160000       2.12730000
C       -1.70570000      -1.71070000       0.91960000
N       -3.13850000      -1.23570000       1.03490000
C       -2.29670000       0.02000000       1.11350000
C       -1.35600000      -0.50580000      -0.01590000
H       -0.24280000       1.81550000       0.64120000
H        0.63570000      -0.37380000      -0.87950000
H        1.04520000      -1.52060000       1.15660000
H        1.65510000       0.12260000       1.47980000
H       -1.89630000      -1.02190000       3.06940000
H       -1.46250000      -2.76770000       0.79910000
H       -3.56740000      -1.28050000       0.10530000
H       -2.74540000       1.00920000       1.22110000
H       -1.81350000      -0.53390000      -1.01000000
