15
Properties=species:S:1:pos:R:3 gdb_46479=T pbc="F F F"
O        0.00210000      -0.04370000      -0.02310000
C       -0.00150000       1.16330000      -0.00860000
N       -1.09160000       1.99100000      -0.02170000
C       -0.83950000       3.42380000       0.02620000
C        0.68550000       3.51100000       0.00410000
C        1.43650000       4.58000000      -0.71820000
N        1.43750000       4.54220000       0.74260000
C        1.21950000       2.10710000       0.03040000
O        2.36940000       1.76520000       0.04650000
H       -2.02340000       1.60610000      -0.03690000
H       -1.29980000       3.93620000      -0.82720000
H       -1.25020000       3.86490000       0.94490000
H        2.38390000       4.31310000      -1.17800000
H        0.85560000       5.34080000      -1.23380000
H        0.78200000       5.23060000       1.10950000
