20
Properties=species:S:1:pos:R:3 gdb_112015=T pbc="F F F"
C       -0.03460000       1.39990000      -0.06250000
O       -0.04870000       0.02500000       0.23960000
C       -1.30610000      -0.59530000       0.04380000
C       -1.67910000      -0.88760000      -1.40500000
C       -1.97340000      -2.17400000      -1.59290000
C       -1.76390000      -2.94960000      -0.33170000
N       -0.33160000      -2.90330000       0.09220000
C       -1.31780000      -1.98090000       0.70080000
C       -1.62960000      -2.07570000       2.17010000
H        0.95720000       1.77670000       0.19990000
H       -0.21080000       1.59980000      -1.13010000
H       -0.78980000       1.95420000       0.51860000
H       -2.08540000       0.03580000       0.51150000
H       -1.68540000      -0.12030000      -2.17020000
H       -2.27250000      -2.62880000      -2.53010000
H       -2.35960000      -3.82360000      -0.09020000
H       -0.16810000      -3.65650000       0.76100000
H       -0.84540000      -1.58620000       2.75870000
H       -2.58030000      -1.58570000       2.40790000
H       -1.69920000      -3.11880000       2.49660000
