17
Properties=species:S:1:pos:R:3 gdb_32757=T pbc="F F F"
C       -0.09370000       1.46960000       0.03730000
C       -0.19710000       0.00380000      -0.33520000
O       -1.23720000      -0.58630000       0.47520000
C       -1.48610000      -1.88380000       0.23980000
C       -2.61950000      -2.50270000      -0.19030000
O       -3.79900000      -1.93700000      -0.56550000
C       -2.34580000      -3.90820000      -0.16940000
C       -1.06500000      -4.03020000       0.26650000
O       -0.52160000      -2.80910000       0.53160000
H        0.69230000       1.95120000      -0.55170000
H       -1.03750000       1.98770000      -0.15550000
H        0.14960000       1.58010000       1.09750000
H       -0.45360000      -0.12920000      -1.39450000
H        0.74450000      -0.52290000      -0.14400000
H       -3.72680000      -0.98730000      -0.41570000
H       -3.02040000      -4.70180000      -0.44790000
H       -0.41850000      -4.87510000       0.43280000
