15
Properties=species:S:1:pos:R:3 gdb_29806=T pbc="F F F"
C        0.01010000       1.45280000       0.03450000
N        0.00210000       0.00160000      -0.00610000
C       -0.00570000      -0.77930000      -1.13670000
C       -0.01010000      -2.09140000      -0.69020000
N       -0.08150000      -3.26460000      -1.43200000
N       -0.00650000      -2.12880000       0.66900000
C       -0.00300000      -0.85760000       1.05550000
C        0.00220000      -0.39930000       2.39610000
N        0.00900000       0.01510000       3.47850000
H        0.90100000       1.84350000      -0.46540000
H       -0.88080000       1.85330000      -0.45750000
H        0.01650000       1.77740000       1.07550000
H       -0.01540000      -0.34640000      -2.12290000
H        0.42690000      -3.23930000      -2.30460000
H        0.18340000      -4.06810000      -0.87800000
