18
Properties=species:S:1:pos:R:3 gdb_121198=T pbc="F F F"
C       -0.72580000       1.33010000      -0.23760000
O       -0.69020000      -0.06440000      -0.45100000
C       -0.75630000      -0.81000000       0.73980000
C       -0.89790000      -2.26440000       0.33700000
O       -0.94510000      -3.14410000       1.47600000
C       -2.23330000      -3.66560000       1.10590000
C       -2.29610000      -2.75760000      -0.15480000
C       -3.37420000      -1.78630000      -0.20220000
N       -4.24410000      -1.02480000      -0.21500000
H       -0.67460000       1.80860000      -1.21810000
H       -1.65610000       1.63690000       0.26220000
H        0.12720000       1.66890000       0.37030000
H        0.15670000      -0.69510000       1.34800000
H       -1.61180000      -0.50200000       1.36110000
H       -0.09100000      -2.53250000      -0.35490000
H       -2.20070000      -4.73880000       0.88970000
H       -2.99690000      -3.46630000       1.86440000
H       -2.25800000      -3.30350000      -1.09850000
