22
Properties=species:S:1:pos:R:3 gdb_88852=T pbc="F F F"
C       -0.48220000       1.32230000       0.00090000
N        0.01980000      -0.04260000       0.03770000
C        1.40210000      -0.26710000      -0.36760000
C        0.99170000      -0.44810000       1.05600000
C        1.50860000       0.46380000       2.15480000
C        0.57160000       0.53850000       3.39540000
C        1.50260000       0.56320000       4.63470000
C        2.80420000       0.02430000       4.09040000
C        2.81120000      -0.02360000       2.76030000
H        0.27230000       2.09970000       0.19930000
H       -0.89840000       1.51180000      -0.99410000
H       -1.29050000       1.43340000       0.73110000
H        1.58320000      -1.12090000      -1.01600000
H        2.01180000       0.60870000      -0.59360000
H        0.82380000      -1.46850000       1.40360000
H        1.67000000       1.46660000       1.73570000
H       -0.10910000       1.39250000       3.35580000
H       -0.04710000      -0.36520000       3.42300000
H        1.64030000       1.58230000       5.02360000
H        1.10780000      -0.02890000       5.46810000
H        3.63920000      -0.24340000       4.72900000
H        3.64610000      -0.34040000       2.14450000
