16
Properties=species:S:1:pos:R:3 gdb_70287=T pbc="F F F"
C       -0.04050000       1.54820000       0.03870000
C        0.06010000       0.04720000       0.02520000
C       -0.79950000      -0.83250000       0.91900000
C        0.68790000      -0.85610000       1.09460000
O        1.38270000      -1.86120000       0.37770000
C        1.11820000      -1.60520000      -0.93820000
C        1.72400000      -2.58360000      -1.88800000
O        1.59070000      -2.53130000      -3.08130000
N        0.42830000      -0.57140000      -1.22650000
H        0.88890000       2.00520000      -0.31390000
H       -0.85160000       1.88030000      -0.61670000
H       -0.24550000       1.91530000       1.04850000
H       -1.35550000      -0.32060000       1.69710000
H       -1.29490000      -1.69330000       0.48270000
H        1.19020000      -0.55720000       2.00540000
H        2.32150000      -3.36940000      -1.38200000
