18
Properties=species:S:1:pos:R:3 gdb_62080=T pbc="F F F"
C       -0.08710000       1.24570000      -1.17590000
C       -0.02420000      -0.03700000      -0.39310000
O        0.22860000      -0.07950000       0.79380000
C       -0.27040000      -1.37280000      -1.11590000
O        0.03690000      -2.43480000      -0.25790000
C       -1.74350000      -1.53760000      -1.55670000
O       -2.12150000      -0.63180000      -2.58570000
C       -2.00370000      -1.05660000      -3.86320000
N       -2.13490000      -0.23640000      -4.81090000
H        0.71970000       1.25650000      -1.91860000
H       -1.02270000       1.30980000      -1.73820000
H        0.02660000       2.09700000      -0.50400000
H        0.36390000      -1.40540000      -2.01650000
H        0.22350000      -2.01260000       0.59910000
H       -1.87550000      -2.57750000      -1.87740000
H       -2.40950000      -1.35520000      -0.70920000
H       -1.81380000      -2.13610000      -3.94460000
H       -2.05460000      -0.71790000      -5.70390000
