18
Properties=species:S:1:pos:R:3 gdb_102063=T pbc="F F F"
C       -0.09600000       1.57250000      -0.01770000
C        0.06900000       0.05080000      -0.00850000
C        0.75020000      -0.49740000      -1.28500000
C        2.21950000      -0.10860000      -1.26130000
O        2.68850000       0.82280000      -1.85900000
C        0.58570000      -2.03590000      -1.36450000
O       -0.76450000      -2.45370000      -1.33170000
C        1.27510000      -2.57860000      -2.55360000
N        1.79430000      -2.98530000      -3.50250000
H        0.86330000       2.08530000      -0.13220000
H       -0.74040000       1.89250000      -0.84310000
H       -0.55350000       1.91290000       0.91560000
H        0.65450000      -0.26050000       0.86770000
H       -0.90450000      -0.43930000       0.08410000
H        0.30110000      -0.04020000      -2.17430000
H        2.84940000      -0.73380000      -0.58440000
H        1.04670000      -2.48770000      -0.47770000
H       -1.19370000      -2.16100000      -2.14460000
