24
Properties=species:S:1:pos:R:3 gdb_102613=T pbc="F F F"
C        0.11340000       1.58950000      -0.21430000
C        0.09310000       0.06300000      -0.10890000
C        0.73400000      -0.65810000      -1.30790000
C        0.79630000      -2.17980000      -1.08670000
C        1.53400000      -2.94170000      -2.18990000
N        0.03670000      -0.33540000      -2.54940000
C        0.62340000       0.30790000      -3.60330000
C       -0.28540000       0.54530000      -4.80180000
O        1.78640000       0.67080000      -3.59920000
H        1.13800000       1.96550000      -0.30010000
H       -0.43750000       1.93350000      -1.09460000
H       -0.34240000       2.04910000       0.66790000
H        0.62370000      -0.25150000       0.79790000
H       -0.94160000      -0.29000000       0.01020000
H        1.74910000      -0.27550000      -1.45550000
H        1.28530000      -2.36150000      -0.12200000
H       -0.22710000      -2.56900000      -0.98330000
H        1.55870000      -4.01450000      -1.97580000
H        1.04760000      -2.80410000      -3.16010000
H        2.56700000      -2.59250000      -2.28750000
H       -0.93120000      -0.60470000      -2.62790000
H       -1.30370000       0.16960000      -4.66940000
H       -0.32570000       1.61890000      -5.00360000
H        0.15900000       0.06680000      -5.67850000
