12
Properties=species:S:1:pos:R:3 gdb_24552=T pbc="F F F"
O       -0.06090000       1.31790000       0.00970000
C        1.12130000       1.97790000       0.00210000
N        2.29420000       1.45420000      -0.01200000
C        2.41980000       0.08420000      -0.02070000
C        1.30090000      -0.69280000      -0.01440000
N        1.04160000      -2.04210000      -0.01930000
C       -0.28050000      -2.07050000      -0.00690000
N       -0.97580000      -0.86140000       0.00640000
C        0.01730000      -0.02190000       0.00160000
H        0.96580000       3.04950000       0.00950000
H        3.42980000      -0.31130000      -0.03250000
H       -0.83400000      -3.00160000      -0.00680000
