19
Properties=species:S:1:pos:R:3 gdb_61610=T pbc="F F F"
C        0.63010000       1.47400000      -0.36200000
C        0.09140000       0.05850000      -0.05580000
N        0.33750000      -0.97020000      -1.05830000
C       -0.44510000      -0.91940000      -2.25310000
C       -0.16740000       0.02670000      -3.42750000
C        0.16790000      -1.44430000      -3.51480000
O        1.50800000      -1.83460000      -3.40600000
C        0.63550000      -0.40560000       1.23530000
N        1.08150000      -0.74020000       2.24710000
H        1.71470000       1.44790000      -0.50320000
H        0.16370000       1.86010000      -1.27010000
H        0.40900000       2.15850000       0.46200000
H       -0.99720000       0.12540000       0.07090000
H        1.32150000      -1.09050000      -1.26800000
H       -1.49040000      -1.17200000      -2.08880000
H       -1.00190000       0.41210000      -4.00430000
H        0.67890000       0.69830000      -3.33310000
H       -0.44120000      -2.08190000      -4.15370000
H        1.96990000      -1.55110000      -4.20150000
