25
Properties=species:S:1:pos:R:3 gdb_83535=T pbc="F F F"
C       -0.24070000       1.58740000       0.79510000
C       -0.04440000       0.10360000       0.50970000
C        0.98030000      -0.41040000      -0.55410000
C        2.29250000       0.23170000      -0.05710000
C        2.15490000      -0.08110000       1.47290000
C        0.80030000      -0.81970000       1.44770000
C        0.95880000      -1.78780000       0.21320000
C       -0.25790000      -2.68040000      -0.07870000
C        2.19140000      -2.69720000       0.13790000
H        0.68960000       2.12570000       0.99000000
H       -0.73130000       2.07770000      -0.05360000
H       -0.88840000       1.72570000       1.66850000
H       -1.02790000      -0.32930000       0.33280000
H        0.77090000      -0.35500000      -1.62500000
H        3.18090000      -0.21660000      -0.50800000
H        2.33220000       1.30370000      -0.26730000
H        2.96800000      -0.70030000       1.85870000
H        2.12040000       0.82240000       2.08730000
H        0.40870000      -1.17850000       2.40260000
H       -1.21880000      -2.16550000      -0.06230000
H       -0.15460000      -3.14510000      -1.06620000
H       -0.31180000      -3.49370000       0.65440000
H        2.10460000      -3.51290000       0.86530000
H        2.26130000      -3.15800000      -0.85440000
H        3.13780000      -2.19120000       0.32860000
