11
Properties=species:S:1:pos:R:3 gdb_4956=T pbc="F F F"
O       -0.01970000      -0.02470000       0.16400000
C       -0.02310000       1.17840000       0.06900000
N       -1.16920000       1.93530000       0.00940000
C       -1.17420000       3.32100000      -0.09980000
C       -0.02120000       3.98510000      -0.15220000
O        1.19160000       3.34970000      -0.10220000
C        1.28770000       1.98300000       0.00530000
O        2.35970000       1.46500000       0.04630000
H       -2.03640000       1.41850000       0.05040000
H       -2.13360000       3.81480000      -0.13860000
H        0.07360000       5.05640000      -0.23660000
