13
Properties=species:S:1:pos:R:3 gdb_21507=T pbc="F F F"
N       -0.10760000       1.32040000       0.00920000
C        0.07390000      -0.01650000       0.00230000
O        1.12720000      -0.61080000      -0.00880000
N       -1.16360000      -0.73190000       0.01050000
C       -1.29500000      -2.08880000       0.00750000
C       -2.64170000      -2.35110000       0.01790000
C       -3.25620000      -1.07380000       0.02690000
N       -2.36430000      -0.09590000       0.02260000
H        0.70480000       1.90990000       0.00240000
H       -1.04110000       1.69820000       0.01690000
H       -0.42050000      -2.71690000      -0.00170000
H       -3.11830000      -3.31760000       0.01890000
H       -4.31030000      -0.83600000       0.03640000
