20
Properties=species:S:1:pos:R:3 gdb_9758=T pbc="F F F"
C        0.13100000       1.56460000      -0.16370000
C        0.01940000       0.05410000       0.06280000
C       -1.42300000      -0.48190000       0.09550000
O       -2.10170000      -0.12530000      -1.12720000
C       -1.48260000      -2.02520000       0.19910000
C       -2.68820000      -2.35300000       1.11210000
C       -2.93170000      -1.04870000       1.83040000
C       -2.23810000      -0.04390000       1.29970000
H        1.17890000       1.87710000      -0.19710000
H       -0.32720000       1.85070000      -1.11560000
H       -0.35350000       2.13680000       0.63530000
H        0.55210000      -0.46970000      -0.74070000
H        0.51370000      -0.21990000       1.00300000
H       -2.40950000       0.78260000      -1.04220000
H       -1.55940000      -2.46380000      -0.79800000
H       -0.56020000      -2.39340000       0.65840000
H       -3.57650000      -2.64590000       0.53690000
H       -2.48020000      -3.18130000       1.79880000
H       -3.62120000      -0.96000000       2.66380000
H       -2.27420000       0.98830000       1.63340000
