19
Properties=species:S:1:pos:R:3 gdb_81844=T pbc="F F F"
C       -0.06470000       1.59350000      -0.07530000
C        0.04130000       0.07550000      -0.02130000
C        0.72660000      -0.63600000      -1.19630000
O        2.10480000      -0.23090000      -1.19430000
C        1.70440000      -1.29920000      -0.31930000
C        2.43040000      -2.60170000      -0.40020000
C        1.11050000      -0.61790000       0.94010000
C        2.04820000       0.26760000       1.71670000
O        2.03450000       0.37570000       2.91890000
H        0.88570000       2.04190000      -0.37610000
H       -0.82660000       1.89750000      -0.80100000
H       -0.34820000       2.00610000       0.89810000
H       -0.93590000      -0.37270000       0.18210000
H        0.30900000      -0.93850000      -2.15050000
H        2.58910000      -2.88330000      -1.44440000
H        3.40880000      -2.53440000       0.08840000
H        1.86090000      -3.39340000       0.09670000
H        0.62760000      -1.31400000       1.62930000
H        2.77460000       0.83270000       1.09560000
