19
Properties=species:S:1:pos:R:3 gdb_82850=T pbc="F F F"
O       -0.00190000       1.47070000      -0.05710000
C        0.00730000       0.06300000       0.03140000
C        0.25000000      -0.62480000       1.40290000
C       -0.48910000       0.11570000       2.54110000
C       -1.93950000      -0.35260000       2.28960000
C       -2.39230000       0.14320000       0.89960000
C       -1.38390000      -0.59830000      -0.01020000
C       -0.85010000      -1.67800000       1.00480000
O       -1.77120000      -1.76270000       2.07080000
H        0.90280000       1.78680000       0.03160000
H        0.66290000      -0.37180000      -0.73670000
H        1.26040000      -0.95010000       1.65410000
H       -0.14680000      -0.22900000       3.52010000
H       -0.37020000       1.19990000       2.47930000
H       -2.64200000      -0.19140000       3.10730000
H       -3.41250000      -0.19360000       0.69880000
H       -2.34250000       1.22710000       0.78360000
H       -1.78630000      -0.89530000      -0.97840000
H       -0.56030000      -2.66450000       0.65120000
