18
Properties=species:S:1:pos:R:3 gdb_13908=T pbc="F F F"
C        0.28400000       1.81540000      -0.61320000
C       -0.03590000       0.33990000      -0.52380000
C        0.82380000      -0.68550000      -1.20690000
N        0.75270000      -0.61490000       0.25210000
C        1.93910000      -0.17960000       0.97790000
C        0.24270000      -1.89400000      -1.89590000
N       -0.51950000      -2.67560000      -1.08060000
O        0.42410000      -2.10360000      -3.08070000
H        1.34870000       2.00830000      -0.76130000
H       -0.25260000       2.25500000      -1.45980000
H       -0.03730000       2.34180000       0.29240000
H       -1.10230000       0.12290000      -0.47780000
H        1.71460000      -0.30390000      -1.70270000
H        2.54780000       0.56600000       0.44760000
H        1.63850000       0.24230000       1.94210000
H        2.56950000      -1.05290000       1.17050000
H       -0.44630000      -2.53330000      -0.08480000
H       -0.86310000      -3.54860000      -1.44440000
