19
Properties=species:S:1:pos:R:3 gdb_71360=T pbc="F F F"
C        0.08300000       1.50600000      -0.27700000
C       -0.03290000       0.03200000      -0.02150000
O        0.41140000      -0.83500000      -1.13390000
C       -0.01730000      -1.75820000      -0.09290000
C        0.67300000      -0.90130000       1.02320000
C       -0.15560000      -1.01430000       2.29040000
C       -1.10920000       0.10390000       2.64030000
C       -1.56610000      -1.00330000       1.71960000
C       -1.27840000      -0.88640000       0.23320000
H        1.12610000       1.76430000      -0.48520000
H       -0.51750000       1.77790000      -1.15100000
H       -0.25670000       2.10260000       0.57210000
H        0.05530000      -2.82810000      -0.29310000
H        1.76180000      -0.88530000       1.06820000
H        0.14560000      -1.71420000       3.06120000
H       -1.51620000       0.08350000       3.64650000
H       -0.94720000       1.10470000       2.26010000
H       -2.32820000      -1.69490000       2.05950000
H       -2.09170000      -0.85640000      -0.49160000
