17
Properties=species:S:1:pos:R:3 gdb_68970=T pbc="F F F"
C       -0.02320000       1.51980000      -0.04660000
C       -0.09260000       0.02700000       0.11230000
C       -1.35300000      -0.74750000      -0.28280000
C       -1.31050000      -1.97850000       0.59590000
C       -0.27110000      -1.96860000       1.43180000
C        0.56870000      -0.74960000       1.20190000
O        1.10950000      -0.69840000      -0.15270000
C        1.37820000      -0.18240000       2.23870000
C        2.04260000       0.27290000       3.13150000
H        0.89330000       1.90930000       0.40150000
H       -0.03170000       1.79070000      -1.10810000
H       -0.88200000       2.00120000       0.43190000
H       -2.25850000      -0.15230000      -0.10830000
H       -1.33830000      -1.00030000      -1.35000000
H       -2.03760000      -2.77790000       0.51150000
H       -0.01580000      -2.72500000       2.16210000
H        2.63480000       0.67880000       3.91420000
