19
Properties=species:S:1:pos:R:3 gdb_72417=T pbc="F F F"
C       -0.10530000       1.46450000       0.01570000
C        0.05590000      -0.03620000       0.01230000
C        0.76210000      -0.67480000      -1.20560000
C        1.01290000      -2.13510000      -0.72140000
C        0.38790000      -2.13240000       0.70680000
C        0.75490000      -0.72210000       1.20090000
C       -1.10970000      -1.94540000       0.48770000
O       -2.01660000      -2.71690000       0.60100000
O       -1.27350000      -0.65380000       0.06520000
H        0.87620000       1.94820000       0.03000000
H       -0.64140000       1.80050000      -0.87660000
H       -0.66730000       1.79080000       0.89510000
H        0.11990000      -0.62050000      -2.08730000
H        1.69460000      -0.15070000      -1.43310000
H        0.55610000      -2.88700000      -1.36850000
H        2.08090000      -2.35920000      -0.65490000
H        0.62670000      -2.99340000       1.32670000
H        1.83140000      -0.53230000       1.23120000
H        0.30540000      -0.45590000       2.16110000
