17
Properties=species:S:1:pos:R:3 gdb_2106=T pbc="F F F"
C       -0.00790000       1.52600000       0.06680000
C        0.03410000       0.00950000      -0.01180000
C        0.73390000      -0.52740000      -1.26760000
C        0.89900000      -2.04450000      -1.14570000
O        1.53190000      -2.37860000       0.08230000
C        0.81660000      -1.85860000       1.17100000
O        0.72340000      -0.46020000       1.14930000
H        1.00660000       1.93590000       0.05620000
H       -0.55960000       1.93870000      -0.78330000
H       -0.49760000       1.84660000       0.99030000
H       -0.99680000      -0.38910000       0.01150000
H        0.15700000      -0.27640000      -2.16520000
H        1.72090000      -0.05910000      -1.35350000
H       -0.08730000      -2.53710000      -1.20330000
H        1.52700000      -2.45180000      -1.94230000
H       -0.19980000      -2.30040000       1.19340000
H        1.36570000      -2.13040000       2.07480000
