16
Properties=species:S:1:pos:R:3 gdb_85711=T pbc="F F F"
C        0.12190000       1.56050000      -0.17750000
C        0.10590000       0.06090000       0.03200000
N        1.04930000      -0.71310000      -0.81030000
C        1.35520000      -1.63640000       0.29450000
C        2.74850000      -2.06520000       0.40100000
N        3.84000000      -2.43360000       0.48460000
C        0.79400000      -0.56680000       1.29890000
C        1.78480000       0.27410000       1.94620000
N        2.55000000       0.96020000       2.47480000
H        1.13620000       1.95580000      -0.08850000
H       -0.25600000       1.80040000      -1.17660000
H       -0.51960000       2.06130000       0.55480000
H       -0.92470000      -0.32100000      -0.01750000
H        0.67200000      -1.14160000      -1.64860000
H        0.71980000      -2.53280000       0.33530000
H        0.11550000      -0.97100000       2.05100000
