25
Properties=species:S:1:pos:R:3 gdb_121839=T pbc="F F F"
C        0.02750000       1.56560000       0.19490000
C        0.01430000       0.04090000       0.05460000
C        0.66450000      -0.44790000      -1.24430000
C        0.64080000      -1.97480000      -1.38040000
C        1.40260000      -2.52760000      -2.59450000
C        0.84270000      -2.01410000      -3.93240000
O        2.76420000      -2.12390000      -2.44730000
C        1.36130000      -4.06400000      -2.56370000
O        2.24370000      -4.52730000      -3.58530000
H        1.05180000       1.95410000       0.18100000
H       -0.51670000       2.04340000      -0.62750000
H       -0.43800000       1.88630000       1.13240000
H        0.53270000      -0.41000000       0.91130000
H       -1.02150000      -0.32230000       0.10380000
H        0.14870000       0.01340000      -2.09590000
H        1.70460000      -0.10590000      -1.28910000
H        1.08800000      -2.41530000      -0.48020000
H       -0.39820000      -2.32800000      -1.42400000
H        1.00980000      -0.93920000      -4.02630000
H        1.34480000      -2.51470000      -4.76450000
H       -0.23200000      -2.20980000      -4.01640000
H        3.26880000      -2.69680000      -3.03860000
H        1.69660000      -4.40910000      -1.57600000
H        0.33640000      -4.42670000      -2.73250000
H        2.42930000      -5.45750000      -3.43360000
