12
Properties=species:S:1:pos:R:3 gdb_25335=T pbc="F F F"
O       -0.00350000      -0.04000000      -0.00240000
C        0.00840000       1.16260000       0.00840000
C        1.24730000       1.98180000       0.00160000
C        1.25570000       3.32590000       0.01310000
C        2.53150000       4.05940000       0.00490000
O        2.60770000       5.26500000       0.01530000
N        3.69190000       3.23760000      -0.01450000
C        3.55500000       1.97540000      -0.02380000
O        2.39980000       1.26230000      -0.01720000
H       -0.91560000       1.77640000       0.02340000
H        0.32740000       3.88440000       0.02820000
H        4.40590000       1.30010000      -0.03870000
