21
Properties=species:S:1:pos:R:3 gdb_65389=T pbc="F F F"
C        0.01640000       1.60920000      -0.09810000
C        0.00870000       0.09190000      -0.03660000
C        1.10160000      -0.65180000      -0.73640000
C        1.09130000      -0.63520000       0.78890000
C        2.15140000       0.08790000       1.52120000
O        2.55310000      -0.22350000       2.61700000
C       -1.33760000      -0.58660000       0.01250000
C       -2.51280000      -0.03390000       0.78050000
C       -2.55100000      -0.07480000      -0.72760000
H        1.02920000       2.00310000      -0.20400000
H       -0.55480000       1.96230000      -0.96250000
H       -0.41830000       2.05670000       0.80120000
H        0.87730000      -1.59720000      -1.21810000
H        1.87940000      -0.07380000      -1.22670000
H        0.76630000      -1.53670000       1.29790000
H        2.59000000       0.95990000       0.98370000
H       -1.25090000      -1.67010000       0.03580000
H       -3.13040000      -0.72960000       1.33740000
H       -2.40970000       0.93700000       1.25180000
H       -2.48120000       0.86780000      -1.25830000
H       -3.19020000      -0.80420000      -1.21270000
