23
Properties=species:S:1:pos:R:3 gdb_93829=T pbc="F F F"
C       -0.04570000       1.54120000      -0.06020000
C        0.07080000       0.01420000      -0.02780000
C        0.69230000      -0.54680000      -1.31780000
C        0.78360000      -2.06730000      -1.25260000
O        1.48580000      -2.51630000      -2.40390000
C        1.50700000      -2.48010000       0.03530000
O        0.88290000      -1.94220000       1.18710000
C        0.82160000      -0.51150000       1.21720000
C        2.20160000       0.11040000       1.46450000
H        0.92780000       2.01860000      -0.21230000
H       -0.69870000       1.85920000      -0.87940000
H       -0.46890000       1.93050000       0.87240000
H       -0.94430000      -0.39910000       0.05070000
H        0.10100000      -0.24650000      -2.18980000
H        1.70240000      -0.14530000      -1.47110000
H       -0.23600000      -2.48520000      -1.22850000
H        1.47110000      -3.47880000      -2.40820000
H        1.48460000      -3.56850000       0.16400000
H        2.56240000      -2.17690000      -0.04590000
H        0.20180000      -0.30240000       2.09700000
H        2.86340000       0.04360000       0.59630000
H        2.10460000       1.16740000       1.72690000
H        2.68370000      -0.40470000       2.30000000
