16
Properties=species:S:1:pos:R:3 gdb_54671=T pbc="F F F"
C       -0.01580000       1.51020000       0.08160000
C       -0.00810000       0.00380000       0.03830000
O       -0.01000000      -0.67720000       1.04340000
C        0.00260000      -0.67840000      -1.29780000
C        0.01100000      -2.00950000      -1.44820000
C        0.02020000      -2.34950000      -2.90070000
O        0.01640000      -1.08670000      -3.57000000
C        0.00590000      -0.06840000      -2.64600000
N        0.00020000       1.16240000      -2.94130000
H        0.85580000       1.91030000      -0.44530000
H       -0.88220000       1.90250000      -0.45930000
H       -0.02520000       1.83630000       1.12200000
H        0.01100000      -2.73360000      -0.64490000
H        0.91160000      -2.91790000      -3.19950000
H       -0.86140000      -2.92800000      -3.20840000
H        0.00460000       1.28910000      -3.95410000
