18
Properties=species:S:1:pos:R:3 gdb_54853=T pbc="F F F"
N        0.72350000       0.23180000       0.90800000
C       -0.11870000       0.17760000      -0.16530000
O        0.03160000       0.86160000      -1.16050000
C       -1.26960000      -0.79570000      -0.07620000
C       -1.12910000      -2.32080000      -0.10560000
C        0.19460000      -2.95760000       0.32160000
C        0.12840000      -2.87590000       1.85970000
O       -0.74930000      -1.77580000       2.16870000
C       -1.67480000      -1.64290000       1.11170000
H        1.40900000       0.97030000       0.90350000
H        0.43700000      -0.18880000       1.78060000
H       -2.09630000      -0.43650000      -0.68070000
H       -1.76880000      -2.86000000      -0.79300000
H        0.25980000      -3.99260000      -0.02280000
H        1.06060000      -2.41780000      -0.06980000
H       -0.28670000      -3.79790000       2.28920000
H        1.09200000      -2.67260000       2.33380000
H       -2.71270000      -1.68500000       1.42610000
