21
Properties=species:S:1:pos:R:3 gdb_101122=T pbc="F F F"
C        0.00320000       1.51610000       0.07460000
C       -0.06350000      -0.01200000       0.03080000
C       -1.50030000      -0.54840000       0.05940000
O       -2.27420000      -0.10430000      -1.04940000
C       -1.51820000      -2.05390000       0.15110000
C       -1.61590000      -3.03740000      -0.97670000
C       -2.61040000      -3.09710000       0.17140000
C       -1.90280000      -3.62640000       1.41070000
O       -0.83440000      -2.64800000       1.26630000
H        1.03590000       1.86870000      -0.00130000
H       -0.57140000       1.95590000      -0.74560000
H       -0.41320000       1.89990000       1.01240000
H        0.42880000      -0.38970000      -0.87750000
H        0.48030000      -0.44820000       0.87570000
H       -2.01170000      -0.14320000       0.94210000
H       -1.76660000      -0.29280000      -1.84700000
H       -2.04310000      -2.65900000      -1.89930000
H       -0.85360000      -3.80370000      -1.09230000
H       -3.67770000      -2.99810000       0.03040000
H       -2.45380000      -3.45580000       2.34240000
H       -1.52650000      -4.65610000       1.38620000
