14
Properties=species:S:1:pos:R:3 gdb_28148=T pbc="F F F"
O        0.07970000       1.29720000       0.12240000
C        0.06900000      -0.04180000       0.01170000
N        0.09270000      -0.72350000      -1.11100000
C        0.06680000      -2.02170000      -0.65390000
C        0.02800000      -2.12500000       0.72280000
N        0.03000000      -0.79630000       1.15360000
C        0.00420000      -3.49610000       1.08240000
C        0.03000000      -4.18150000      -0.12020000
N        0.06810000      -3.28470000      -1.17820000
H        0.10800000       1.64060000      -0.77930000
H        0.00800000      -0.42980000       2.08830000
H       -0.02720000      -3.94720000       2.06110000
H        0.02420000      -5.24290000      -0.30640000
H        0.09250000      -3.52910000      -2.15160000
