14
Properties=species:S:1:pos:R:3 gdb_67927=T pbc="F F F"
O       -0.11240000       1.40110000      -0.05530000
C       -0.00890000       0.03430000      -0.05770000
C        0.72330000      -0.80170000      -1.12520000
C       -0.50680000      -1.74920000      -1.09990000
O       -0.84850000      -2.66780000      -1.78110000
C       -1.19600000      -0.93640000      -0.02940000
C       -0.25720000      -0.78400000       1.18560000
C        0.62390000      -1.82510000       1.64480000
N        1.35760000      -2.64470000       2.00280000
H        0.72610000       1.77840000       0.23640000
H        0.77090000      -0.28310000      -2.08680000
H        1.70000000      -1.21970000      -0.87160000
H       -2.25750000      -0.76370000       0.09690000
H       -0.72880000      -0.21350000       1.98050000
