17
Properties=species:S:1:pos:R:3 gdb_74741=T pbc="F F F"
C        0.00310000       1.48950000       0.05210000
C       -0.05850000       0.00270000      -0.02600000
C       -0.07030000      -0.81100000      -1.08890000
C        0.00270000      -2.22980000      -0.54400000
C       -0.85830000      -2.10790000       0.72290000
C       -0.00690000      -0.90680000       1.21440000
C        1.38200000      -1.57460000       1.13400000
O        2.34140000      -1.43520000       1.83470000
O        1.34340000      -2.40620000       0.05280000
H        0.92040000       1.81610000       0.55690000
H       -0.02080000       1.94340000      -0.94190000
H       -0.83510000       1.88980000       0.63570000
H       -0.03130000      -0.53920000      -2.13500000
H       -0.15920000      -3.06190000      -1.22420000
H       -1.89680000      -1.84090000       0.52300000
H       -0.80060000      -2.99220000       1.36410000
H       -0.21500000      -0.44990000       2.17890000
