14
Properties=species:S:1:pos:R:3 gdb_33636=T pbc="F F F"
N       -0.19980000      -1.24030000      -0.01210000
C       -0.14920000      -0.08380000       0.02730000
C       -0.06700000       1.32770000       0.06260000
C       -0.88970000       2.38300000       0.73480000
C        0.05960000       3.01780000       1.77430000
N        1.31350000       3.14150000       0.98420000
C        1.17370000       2.33750000       0.01610000
N        0.82030000       2.91880000      -1.28820000
C       -0.57230000       2.41800000      -0.81460000
H       -1.93520000       2.19620000       0.96680000
H       -0.21200000       4.03620000       2.06670000
H        0.11900000       2.40300000       2.68330000
H        1.03820000       2.26590000      -2.04880000
H       -1.37430000       2.38740000      -1.54490000
