16
Properties=species:S:1:pos:R:3 gdb_16384=T pbc="F F F"
C       -0.05190000       1.53220000       0.00170000
C        0.03380000       0.00750000      -0.03920000
C        0.98170000      -0.57280000      -1.11080000
C        1.18580000      -2.04830000      -0.69920000
C        1.94630000      -1.31680000       0.43320000
O        2.30170000      -0.27200000      -0.53370000
C        0.80410000      -0.59350000       1.16610000
O        0.58350000      -0.48580000       2.33950000
H        0.94930000       1.96920000      -0.04460000
H       -0.64040000       1.91740000      -0.83680000
H       -0.52530000       1.85860000       0.93200000
H       -0.96930000      -0.43250000      -0.08740000
H        0.86840000      -0.24940000      -2.14520000
H        0.31380000      -2.65990000      -0.45210000
H        1.87250000      -2.57400000      -1.36330000
H        2.77390000      -1.72920000       1.00610000
