17
Properties=species:S:1:pos:R:3 gdb_56454=T pbc="F F F"
C       -0.18150000       1.73610000       0.36000000
C       -0.60220000       0.30410000      -0.00310000
C        0.48010000      -0.66010000       0.18450000
C        1.36880000      -1.44810000       0.37200000
C       -1.83450000      -0.14740000       0.81400000
O       -2.29640000       0.52690000       1.69570000
C       -2.44230000      -1.51720000       0.45470000
C       -2.82170000      -1.62040000      -0.94730000
C       -3.13660000      -1.67670000      -2.10580000
H        0.67350000       2.04120000      -0.24740000
H       -1.00940000       2.42690000       0.18500000
H        0.09430000       1.79890000       1.41430000
H       -0.91060000       0.26390000      -1.05710000
H        2.16010000      -2.14060000       0.52120000
H       -1.69580000      -2.28470000       0.69540000
H       -3.30510000      -1.66610000       1.11010000
H       -3.41880000      -1.74170000      -3.12760000
