14
Properties=species:S:1:pos:R:3 gdb_49886=T pbc="F F F"
O       -0.58570000       0.80720000      -0.64530000
C        0.20930000       0.97610000       0.23960000
C        1.39880000       1.92950000       0.14350000
C        1.43760000       2.78860000      -1.12250000
C        1.40970000       4.23430000      -0.63460000
O        1.44170000       5.24220000      -1.28770000
N        1.33840000       4.19090000       0.76080000
C        1.34270000       2.92460000       1.31780000
O        1.29410000       2.65930000       2.49120000
H        0.13480000       0.44900000       1.21140000
H        2.29770000       1.31920000       0.29360000
H        2.32890000       2.63350000      -1.73380000
H        0.56590000       2.59740000      -1.75490000
H        1.29760000       5.02850000       1.32510000
