21
Properties=species:S:1:pos:R:3 gdb_107352=T pbc="F F F"
C       -0.42920000       1.51850000      -0.10190000
C       -0.04700000       0.03890000       0.03380000
C        0.83510000      -0.46440000      -1.08900000
C        0.20580000      -0.91860000      -2.38660000
C        0.86790000      -1.93600000      -1.48680000
C        2.28410000      -2.33930000      -1.83810000
C        3.07400000      -1.02190000      -1.89270000
O        4.16150000      -0.87780000      -2.38570000
C        2.24930000       0.08140000      -1.21200000
H        0.45630000       2.16240000      -0.08900000
H       -0.95900000       1.70280000      -1.04240000
H       -1.07990000       1.83370000       0.71950000
H        0.46460000      -0.11900000       0.99340000
H       -0.95870000      -0.57050000       0.06990000
H       -0.87800000      -0.92770000      -2.43770000
H        0.68710000      -0.66500000      -3.32810000
H        0.23410000      -2.64660000      -0.96760000
H        2.73000000      -2.96890000      -1.05660000
H        2.39210000      -2.88010000      -2.78340000
H        2.34150000       1.01540000      -1.77430000
H        2.68600000       0.26250000      -0.21960000
