15
Properties=species:S:1:pos:R:3 gdb_61741=T pbc="F F F"
C       -0.01160000       1.59250000       0.15350000
C        0.06140000       0.05600000       0.01320000
N        0.69920000      -0.37270000      -1.21050000
C        0.04620000      -0.33380000      -2.40240000
O       -1.06820000       0.12070000      -2.55590000
C        0.81210000      -0.56090000       1.17730000
O        1.82890000      -1.20140000       1.06900000
C        0.22110000      -0.31870000       2.50580000
N       -0.24950000      -0.13930000       3.54640000
H        0.99030000       2.02990000       0.13350000
H       -0.58900000       1.97760000      -0.68810000
H       -0.50990000       1.87880000       1.08340000
H       -0.96900000      -0.32740000       0.03800000
H        1.58690000      -0.84620000      -1.12320000
H        0.65150000      -0.75950000      -3.22490000
