14
Properties=species:S:1:pos:R:3 gdb_3556=T pbc="F F F"
O        0.02130000       1.34040000       0.10200000
C        0.03200000      -0.06180000      -0.05720000
C       -1.40910000      -0.53890000      -0.20480000
C       -1.34530000      -0.44050000      -1.68110000
C        0.22190000      -0.54100000      -1.52690000
C       -0.01220000      -2.05120000      -1.39940000
N       -1.45000000      -1.78360000      -1.04520000
H        0.93050000       1.65150000       0.04770000
H        0.66820000      -0.54450000       0.70030000
H       -2.23930000      -0.37350000       0.46850000
H       -2.02460000      -0.06080000      -2.43160000
H        0.99470000      -0.09820000      -2.15410000
H        0.01280000      -2.58860000      -2.35060000
H        0.56110000      -2.60570000      -0.64580000
