19
Properties=species:S:1:pos:R:3 gdb_117280=T pbc="F F F"
C        0.39340000       0.66290000       0.36660000
C       -0.34880000      -0.13840000      -0.67880000
O        0.14560000      -0.50130000      -1.71900000
C       -1.79070000      -0.52970000      -0.31330000
C       -1.71970000      -1.85980000       0.44810000
O       -1.49530000      -1.88470000       1.63750000
C       -1.88200000      -3.10610000      -0.39180000
C       -1.61770000      -4.39520000       0.37130000
O       -1.85900000      -5.46730000      -0.52650000
H        1.44850000       0.74530000       0.10370000
H       -0.04560000       1.66510000       0.44030000
H        0.27110000       0.19070000       1.34730000
H       -2.24110000       0.21660000       0.34450000
H       -2.36240000      -0.63480000      -1.23680000
H       -2.90070000      -3.11770000      -0.80350000
H       -1.22040000      -3.02120000      -1.26430000
H       -0.58230000      -4.39840000       0.74230000
H       -2.27450000      -4.44210000       1.25140000
H       -1.68730000      -6.29080000      -0.06090000
