21
Properties=species:S:1:pos:R:3 gdb_108703=T pbc="F F F"
C       -0.34500000       1.50390000       0.02290000
C        0.18580000       0.05830000       0.02710000
C        0.86910000      -0.31940000      -1.25040000
C        2.14190000      -0.64590000      -1.46330000
C        3.29500000      -1.45930000      -0.92890000
O        3.24640000      -2.25520000      -2.15390000
C        2.40180000      -1.23960000      -2.80620000
C        0.99590000      -1.55910000      -3.33810000
C        0.11430000      -0.51440000      -2.57520000
H        0.47270000       2.21840000      -0.11330000
H       -1.06360000       1.66000000      -0.78820000
H       -0.84870000       1.73650000       0.96600000
H        0.87770000      -0.07330000       0.86670000
H       -0.65830000      -0.62440000       0.20040000
H        4.25880000      -0.94040000      -0.83870000
H        3.11560000      -2.05500000      -0.02690000
H        3.01520000      -0.66840000      -3.51680000
H        0.89810000      -1.50070000      -4.42580000
H        0.72270000      -2.57020000      -3.01990000
H       -0.90420000      -0.87960000      -2.39990000
H        0.01320000       0.41640000      -3.14920000
