23
Properties=species:S:1:pos:R:3 gdb_63204=T pbc="F F F"
C       -0.03090000       1.58330000      -0.04370000
C       -0.00910000       0.04610000      -0.01850000
C       -1.46250000      -0.47550000      -0.03250000
C        0.76090000      -0.54990000      -1.18990000
C        1.58270000      -1.53820000      -0.83660000
C        1.57840000      -1.78890000       0.64880000
C        2.82920000      -1.28330000       1.42440000
C        2.11370000       0.07870000       1.63690000
C        0.76390000      -0.56190000       1.18270000
H        0.97360000       2.01070000      -0.09990000
H       -0.59160000       1.94480000      -0.91320000
H       -0.51930000       1.98330000       0.85190000
H       -1.97430000      -0.19690000      -0.96050000
H       -1.48830000      -1.56670000       0.04790000
H       -2.03440000      -0.05630000       0.80380000
H        0.60080000      -0.20530000      -2.20780000
H        2.19530000      -2.11490000      -1.52300000
H        1.24420000      -2.80180000       0.89920000
H        2.97600000      -1.82960000       2.36030000
H        3.77760000      -1.26780000       0.88010000
H        2.13670000       0.48930000       2.64900000
H        2.47330000       0.84730000       0.95030000
H        0.10660000      -0.77570000       2.02930000
