16
Properties=species:S:1:pos:R:3 gdb_5082=T pbc="F F F"
C       -0.11450000       1.50690000       0.03910000
C       -0.03920000       0.01210000       0.00680000
C       -0.07310000      -0.79190000      -1.10470000
N        0.02340000      -2.11610000      -0.69170000
C        0.11710000      -2.14480000       0.66420000
O        0.22290000      -3.31320000       1.33250000
C        0.08320000      -0.85860000       1.14600000
N        0.16510000      -0.60090000       2.54890000
H        0.77690000       1.95300000       0.49850000
H       -0.20440000       1.91920000      -0.97000000
H       -0.97680000       1.86220000       0.61770000
H       -0.15690000      -0.54640000      -2.15070000
H        0.02570000      -2.92750000      -1.28330000
H        0.27270000      -3.05350000       2.26490000
H       -0.65420000      -0.10820000       2.89300000
H        0.96840000      -0.02460000       2.78300000
