17
Properties=species:S:1:pos:R:3 gdb_53463=T pbc="F F F"
C       -0.07480000       1.38870000      -0.56150000
C       -0.01190000      -0.01990000      -0.19910000
C        0.03810000      -1.18360000       0.10040000
C        0.10700000      -2.60070000       0.46410000
C       -1.20460000      -3.24240000       0.58690000
C       -2.27950000      -3.76920000       0.70740000
C       -3.57580000      -4.42590000       0.78930000
C       -3.98760000      -5.06710000      -0.53820000
O       -4.56800000      -6.11480000      -0.61950000
H        0.39110000       2.01830000       0.20450000
H        0.44220000       1.58020000      -1.50810000
H       -1.11220000       1.72100000      -0.67740000
H        0.70660000      -3.14340000      -0.28020000
H        0.65070000      -2.71190000       1.41290000
H       -3.60780000      -5.19710000       1.56580000
H       -4.35640000      -3.69020000       1.03840000
H       -3.71570000      -4.47060000      -1.43600000
