17
Properties=species:S:1:pos:R:3 gdb_80507=T pbc="F F F"
C       -0.16100000       1.56250000       0.04910000
C        0.13230000       0.07330000       0.02310000
N        1.33440000      -0.37330000      -0.77330000
C        1.76840000      -1.24300000       0.33300000
C        2.21990000      -0.34140000       1.41860000
O        2.80220000       0.87930000       1.14180000
C        0.70670000      -0.61590000       1.27940000
C       -0.06700000      -1.18800000       2.32330000
N       -0.70050000      -1.65390000       3.17460000
H        0.69280000       2.12800000       0.42550000
H       -0.41220000       1.92060000      -0.95470000
H       -1.01890000       1.75920000       0.70050000
H       -0.75390000      -0.48400000      -0.29980000
H        1.07340000      -0.89030000      -1.60410000
H        2.05840000      -2.27780000       0.19410000
H        2.64360000      -0.81890000       2.29650000
H        2.72640000       0.98720000       0.17940000
