18
Properties=species:S:1:pos:R:3 gdb_62515=T pbc="F F F"
C        0.14550000       1.39680000       0.24780000
C       -0.07040000      -0.08880000       0.04290000
C       -1.42310000      -0.61350000       0.48080000
C        0.61880000      -0.78300000      -1.13340000
C        1.43600000      -0.05490000      -2.06390000
C        2.08560000       0.54440000      -2.87840000
N        1.04330000      -0.99810000       0.24220000
C        2.28820000      -0.74620000       0.78730000
O        3.34270000      -1.03020000       0.27750000
H        1.11670000       1.71930000      -0.13300000
H       -0.63070000       1.96440000      -0.27510000
H        0.08150000       1.65090000       1.31120000
H       -2.22620000      -0.10980000      -0.06680000
H       -1.50040000      -1.68960000       0.30900000
H       -1.57710000      -0.42840000       1.54950000
H        0.09630000      -1.63430000      -1.56690000
H        2.68090000       1.06430000      -3.58800000
H        2.20000000      -0.31910000       1.80600000
