15
Properties=species:S:1:pos:R:3 gdb_34719=T pbc="F F F"
N       -0.05420000      -1.18810000      -0.15430000
C       -0.03100000      -0.03480000      -0.07630000
C       -0.03060000       1.41690000       0.02960000
C       -0.03380000       2.07910000       1.42040000
C        1.46490000       1.66160000       1.55390000
C        2.21930000       2.78930000       2.21990000
C        1.67300000       3.87860000       1.67650000
C        0.63890000       3.30700000       0.73410000
N        1.35290000       2.09310000       0.04850000
H       -0.69610000       1.84370000      -0.72590000
H       -0.82210000       2.06220000       2.18150000
H        1.74780000       0.62380000       1.72250000
H        3.02400000       2.68970000       2.93300000
H        1.90270000       4.92440000       1.81740000
H        0.07540000       3.95600000       0.06330000
