19
Properties=species:S:1:pos:R:3 gdb_101220=T pbc="F F F"
C       -0.52400000       1.32600000      -0.04190000
O       -0.04470000       0.00000000      -0.09360000
C        0.61670000      -0.44250000       1.08040000
C       -0.33140000      -0.70560000       2.25070000
C        1.34480000      -1.70820000       0.65070000
C        2.56180000      -1.54980000      -0.27260000
C        3.33870000      -2.08590000       0.92970000
O        4.45930000      -2.35070000       1.21920000
O        2.21730000      -2.21390000       1.71960000
H        0.27770000       2.03610000       0.21380000
H       -0.90370000       1.56650000      -1.03760000
H       -1.34070000       1.45050000       0.68250000
H        1.37440000       0.30110000       1.38430000
H       -0.79810000       0.21740000       2.60450000
H       -1.12190000      -1.40000000       1.94870000
H        0.22300000      -1.14470000       3.08440000
H        0.63230000      -2.48190000       0.35270000
H        2.59650000      -2.19400000      -1.15210000
H        2.81070000      -0.52670000      -0.55890000
