22
Properties=species:S:1:pos:R:3 gdb_100720=T pbc="F F F"
C        0.00470000       1.59640000       0.13960000
C       -0.06130000       0.07810000      -0.06000000
C        0.83710000      -0.45360000      -1.19550000
C        2.31800000      -0.13070000      -0.93420000
C        0.64470000      -1.98160000      -1.40250000
N       -0.73320000      -2.50470000      -1.31370000
H       -1.04320000      -2.56540000      -0.35110000
H       -1.38280000      -1.89030000      -1.79700000
H       -0.14470000      -3.71500000      -2.60050000
C        1.23660000      -2.49000000      -2.74570000
O        2.17150000      -1.99260000      -3.31640000
O        0.61170000      -3.57780000      -3.21380000
H        0.99180000       1.92500000       0.47460000
H       -0.22470000       2.12640000      -0.79170000
H       -0.72180000       1.91820000       0.89210000
H        0.21140000      -0.42500000       0.87960000
H       -1.10450000      -0.19340000      -0.25790000
H        0.53650000       0.04520000      -2.12840000
H        2.94610000      -0.54140000      -1.72320000
H        2.48310000       0.94880000      -0.89140000
H        2.63810000      -0.55350000       0.02700000
H        1.21610000      -2.50290000      -0.62130000
