20
Properties=species:S:1:pos:R:3 gdb_57636=T pbc="F F F"
C       -0.09150000       1.57090000      -0.05490000
C       -0.01330000       0.03300000       0.01280000
N        0.76570000      -0.33760000       1.20500000
C       -1.43300000      -0.61050000      -0.00080000
N       -2.16240000      -0.22340000       1.19860000
C       -3.22520000       0.77030000       1.05370000
C       -3.55190000      -0.66220000       1.28270000
C        0.69930000      -0.46400000      -1.17910000
N        1.22470000      -0.86980000      -2.12480000
H        0.91540000       1.98960000      -0.09170000
H       -0.65080000       1.90120000      -0.93430000
H       -0.59020000       1.94610000       0.84190000
H        0.15180000      -0.19220000       2.00470000
H        0.96930000      -1.33390000       1.18340000
H       -1.96400000      -0.34410000      -0.93030000
H       -1.31120000      -1.69950000       0.00790000
H       -3.31130000       1.49180000       1.86080000
H       -3.41180000       1.17250000       0.05950000
H       -3.95950000      -1.22020000       0.44170000
H       -3.87920000      -1.00630000       2.25940000
