20
Properties=species:S:1:pos:R:3 gdb_110038=T pbc="F F F"
C       -0.37670000       1.30310000      -0.03090000
O       -0.05920000      -0.07760000       0.02470000
C        0.70810000      -0.53990000      -1.07410000
C        1.15120000      -1.98260000      -0.79100000
C        1.61340000      -2.27580000       0.63240000
C       -0.09430000      -2.76130000      -1.24150000
O       -0.63960000      -2.00570000      -2.33920000
C       -0.18310000      -0.72160000      -2.29760000
N       -0.48080000       0.18280000      -3.12930000
H        0.53620000       1.91770000      -0.02640000
H       -0.95870000       1.55310000      -0.92500000
H       -0.96100000       1.52530000       0.86500000
H        1.53640000       0.14720000      -1.28620000
H        1.95900000      -2.20840000      -1.49850000
H        0.84200000      -2.00210000       1.35490000
H        1.84580000      -3.33900000       0.75280000
H        2.51740000      -1.70870000       0.87380000
H        0.12180000      -3.76910000      -1.60380000
H       -0.84220000      -2.81940000      -0.44200000
H       -1.13190000      -0.17710000      -3.83120000
