25
Properties=species:S:1:pos:R:3 gdb_92745=T pbc="F F F"
C       -0.03540000       1.56990000      -0.03030000
C        0.05740000       0.04140000      -0.00510000
C        0.67600000      -0.51510000      -1.29890000
C        0.95880000      -1.99130000      -1.22050000
C        0.95160000      -2.69860000      -0.08770000
C        1.21420000      -4.18010000      -0.06130000
C        0.65830000      -2.05120000       1.24960000
C        0.79280000      -0.51590000       1.23600000
C        2.26740000      -0.09080000       1.32900000
H        0.95040000       2.03590000      -0.13310000
H       -0.64520000       1.90900000      -0.87480000
H       -0.49360000       1.95560000       0.88710000
H       -0.96920000      -0.34890000       0.05120000
H        0.00250000      -0.31160000      -2.14250000
H        1.60280000       0.03000000      -1.53800000
H        1.18240000      -2.49600000      -2.15900000
H        1.37420000      -4.58260000      -1.06530000
H        2.09720000      -4.41660000       0.54690000
H        0.37430000      -4.72300000       0.39260000
H       -0.35690000      -2.33550000       1.56580000
H        1.32560000      -2.47580000       2.01240000
H        0.28160000      -0.12550000       2.12620000
H        2.85850000      -0.49830000       0.50290000
H        2.38060000       0.99720000       1.32170000
H        2.71010000      -0.45880000       2.26060000
