15
Properties=species:S:1:pos:R:3 gdb_19423=T pbc="F F F"
C        0.01890000       1.50670000      -0.02300000
O        1.19510000       0.69650000       0.00130000
C       -0.08530000       0.04230000       0.00480000
C       -0.47980000      -0.76710000       1.19340000
C       -0.97380000      -1.95330000       0.82190000
C       -1.01240000      -2.07030000      -0.66700000
N       -1.90740000      -1.05150000      -1.29840000
C       -0.45370000      -0.79810000      -1.19510000
H       -0.17500000       2.07900000       0.88360000
H       -0.17280000       2.03660000      -0.95520000
H       -0.38550000      -0.39430000       2.20580000
H       -1.34400000      -2.72180000       1.48910000
H       -0.88090000      -3.02510000      -1.16350000
H       -2.10730000      -1.34570000      -2.25430000
H        0.15930000      -0.73790000      -2.08730000
