17
Properties=species:S:1:pos:R:3 gdb_55409=T pbc="F F F"
C       -0.15930000       1.50740000      -0.06950000
C        0.04040000       0.02030000       0.09550000
O        0.17610000      -0.51830000       1.16900000
C        0.03040000      -0.79620000      -1.20100000
C        0.49030000      -2.25130000      -1.07270000
O       -0.25770000      -2.98790000      -2.04690000
C       -1.55500000      -2.44480000      -2.08800000
C       -1.40460000      -0.95880000      -1.75960000
O       -2.23270000      -0.10000000      -1.89900000
H        0.67580000       1.93570000      -0.63630000
H       -1.06850000       1.68410000      -0.65480000
H       -0.22620000       1.98870000       0.90650000
H        0.59330000      -0.25420000      -1.97090000
H        1.54800000      -2.39930000      -1.29480000
H        0.28600000      -2.61120000      -0.05590000
H       -1.99370000      -2.59820000      -3.07770000
H       -2.22730000      -2.89500000      -1.33620000
