16
Properties=species:S:1:pos:R:3 gdb_41568=T pbc="F F F"
C        0.24970000       1.57320000      -0.15510000
O        1.54340000       1.41230000       0.47920000
C        1.32240000       0.01260000       0.70260000
C       -0.02750000       0.06510000      -0.08030000
C        0.60830000      -0.79170000      -1.20940000
O        1.02220000      -0.08530000      -2.39740000
C        2.37310000       0.07750000      -2.26460000
N        2.97570000      -0.36300000      -1.24030000
C        1.93030000      -0.92890000      -0.39450000
H       -0.42100000       2.18030000       0.46460000
H        0.32440000       2.01050000      -1.15510000
H        1.44850000      -0.27450000       1.74970000
H       -0.98700000      -0.27290000       0.30760000
H        0.05010000      -1.67880000      -1.51290000
H        2.83770000       0.58660000      -3.10140000
H        2.20060000      -1.91850000      -0.01850000
