14
Properties=species:S:1:pos:R:3 gdb_27075=T pbc="F F F"
N       -0.52740000       0.82210000      -0.97190000
C       -0.25180000      -0.32790000      -0.27460000
C       -0.98390000      -1.24300000       0.43160000
N       -2.36460000      -1.37830000       0.64110000
C       -3.36570000      -0.83380000      -0.08880000
O       -3.22940000      -0.09970000      -1.05460000
N       -0.12990000      -2.15180000       1.03590000
C        1.04940000      -1.77750000       0.67590000
O        1.06000000      -0.67700000      -0.12680000
H        0.12300000       0.99560000      -1.72760000
H       -1.50090000       0.82350000      -1.27470000
H       -2.61050000      -2.00730000       1.39140000
H       -4.35790000      -1.12720000       0.29710000
H        2.00420000      -2.21230000       0.91900000
