13
Properties=species:S:1:pos:R:3 gdb_131377=T pbc="F F F"
O        0.09330000       1.35290000       0.06880000
C        0.07390000       0.00610000       0.07370000
N        0.07710000      -0.70920000      -1.04450000
N        0.05380000      -2.02700000      -0.65970000
C        0.03550000      -2.14130000       0.69040000
C        0.04800000      -0.85250000       1.18750000
O        0.03170000      -0.85150000       2.54950000
C        0.00850000      -2.17560000       2.89560000
C        0.00930000      -3.01880000       1.82160000
H        0.10850000       1.62850000      -0.85670000
H        0.05110000      -2.73490000      -1.37010000
H       -0.00710000      -2.36810000       3.95650000
H       -0.00670000      -4.09570000       1.86050000
