18
Properties=species:S:1:pos:R:3 gdb_65331=T pbc="F F F"
C        0.52570000       1.24110000      -1.00450000
C        0.00740000       0.09660000      -0.16150000
O        0.92640000      -1.00200000      -0.01020000
C        0.64620000      -0.21300000       1.14340000
C        1.72610000       0.59930000       1.66620000
N        2.57110000       1.25070000       2.11100000
C       -1.42600000      -0.26590000      -0.41390000
C       -2.28110000      -1.06050000       0.53490000
C       -2.54250000       0.41130000       0.34860000
H        1.57120000       1.46050000      -0.78180000
H        0.44440000       0.98150000      -2.06490000
H       -0.07030000       2.14200000      -0.83110000
H        0.07640000      -0.71700000       1.92060000
H       -1.61730000      -0.43790000      -1.47030000
H       -2.97560000      -1.76760000       0.09590000
H       -1.86530000      -1.39230000       1.47890000
H       -2.26260000       1.07620000       1.15900000
H       -3.42430000       0.72350000      -0.19880000
