16
Properties=species:S:1:pos:R:3 gdb_26637=T pbc="F F F"
C       -0.00300000       1.52020000       0.05700000
C        0.01920000       0.03160000      -0.00320000
C        0.03460000      -0.82020000      -1.08030000
O        0.03190000      -0.43350000      -2.38360000
C        0.05370000      -2.17290000      -0.60000000
C        0.04910000      -2.09500000       0.78440000
N        0.02860000      -0.77810000       1.12440000
C        0.07270000      -3.30790000      -1.43570000
C        0.08800000      -4.22250000      -2.22330000
H        0.87580000       1.93250000       0.56940000
H       -0.00890000       1.91740000      -0.96030000
H       -0.89380000       1.90590000       0.56940000
H        0.04500000      -1.23370000      -2.92310000
H        0.05890000      -2.87710000       1.52470000
H        0.02110000      -0.43110000       2.06730000
H        0.10150000      -5.04700000      -2.89160000
