19
Properties=species:S:1:pos:R:3 gdb_92869=T pbc="F F F"
C       -0.20420000       1.49970000       0.03530000
C        0.02770000      -0.02300000      -0.03270000
C        0.80160000      -0.46700000      -1.28170000
O        0.10070000       0.01360000      -2.41880000
C        2.25910000       0.01650000      -1.24990000
C        2.91540000      -0.30000000       0.06360000
C        2.22500000      -0.53710000       1.18630000
C        0.74630000      -0.47940000       1.23900000
O        0.13590000      -0.73390000       2.25820000
H        0.73520000       2.05300000       0.13700000
H       -0.70860000       1.84270000      -0.86990000
H       -0.82590000       1.73730000       0.90220000
H       -0.94940000      -0.51530000      -0.03850000
H        0.81700000      -1.56930000      -1.28590000
H        0.51780000      -0.34860000      -3.20690000
H        2.82730000      -0.44040000      -2.07080000
H        2.28730000       1.09930000      -1.43410000
H        4.00230000      -0.33510000       0.08190000
H        2.71790000      -0.77600000       2.12350000
