18
Properties=species:S:1:pos:R:3 gdb_74462=T pbc="F F F"
C        0.04360000       1.52670000      -0.00530000
C       -0.06110000       0.04040000       0.00510000
C       -1.13640000      -0.76010000      -0.07990000
C       -0.67730000      -2.16540000      -0.02080000
C       -1.39320000      -3.31300000       0.67990000
C       -1.26190000      -3.33350000      -0.80380000
C        0.82250000      -2.09540000       0.11220000
O        1.61910000      -3.00720000       0.19540000
N        1.10710000      -0.74220000       0.12020000
H        0.66070000       1.87910000      -0.84110000
H       -0.94680000       1.97660000      -0.09990000
H        0.50320000       1.90240000       0.91730000
H       -2.16140000      -0.43460000      -0.17680000
H       -0.75710000      -3.97780000       1.25430000
H       -2.35950000      -3.09060000       1.11820000
H       -2.13580000      -3.12610000      -1.41090000
H       -0.53660000      -4.01260000      -1.23890000
H        2.04440000      -0.38410000       0.19970000
