18
Properties=species:S:1:pos:R:3 gdb_276=T pbc="F F F"
C        0.07020000       1.50740000       0.00750000
C       -0.11140000       0.00150000      -0.09830000
O        0.71740000      -0.47200000      -1.13950000
C        0.77130000      -1.88630000      -1.28270000
C       -0.50070000      -2.44850000      -1.92640000
C        2.01280000      -2.18660000      -2.11630000
H        1.11390000       1.75380000       0.22230000
H       -0.20850000       1.99310000      -0.93210000
H       -0.55690000       1.91320000       0.80720000
H        0.15980000      -0.48690000       0.85350000
H       -1.16970000      -0.23650000      -0.29000000
H        0.89280000      -2.33940000      -0.28320000
H       -0.42090000      -3.53390000      -2.04540000
H       -1.38820000      -2.24720000      -1.31980000
H       -0.65190000      -2.00230000      -2.91480000
H        2.90420000      -1.77690000      -1.63400000
H        2.14540000      -3.26540000      -2.24170000
H        1.92160000      -1.73160000      -3.10780000
