21
Properties=species:S:1:pos:R:3 gdb_81246=T pbc="F F F"
O        0.06660000       1.42370000      -0.20400000
C        0.04260000       0.03550000      -0.01240000
C        0.03250000      -0.60290000       1.39920000
C       -1.48000000      -0.17000000       1.50880000
C       -1.31450000      -0.75780000       0.07150000
C       -2.05990000      -1.30870000      -1.11810000
C       -1.02560000      -2.36640000      -1.65360000
C       -0.01050000      -2.71990000      -0.49290000
C       -0.51570000      -1.90480000       0.71000000
H       -0.55950000       1.84000000       0.39640000
H        0.78720000      -0.35530000      -0.70570000
H        0.78800000      -0.51510000       2.18220000
H       -2.09950000      -0.75030000       2.19780000
H       -1.69840000       0.89600000       1.62710000
H       -2.99070000      -1.79650000      -0.80700000
H       -2.31240000      -0.56580000      -1.88030000
H       -1.53820000      -3.25980000      -2.02030000
H       -0.48190000      -1.95040000      -2.50650000
H       -0.02420000      -3.78930000      -0.26800000
H        1.01300000      -2.48240000      -0.79350000
H       -1.10410000      -2.52150000       1.39640000
