21
Properties=species:S:1:pos:R:3 gdb_12017=T pbc="F F F"
C       -0.07000000       1.53310000       0.01180000
C       -0.01700000       0.01810000       0.01020000
C       -1.23680000      -0.65490000      -0.59020000
C        1.32750000      -0.65020000      -0.19960000
C        0.66800000      -0.69360000       1.15720000
N        1.26440000       0.07900000       2.21180000
C        0.65430000      -0.03400000       3.53280000
C        1.97280000      -0.66650000       3.24760000
H        0.79610000       1.95740000       0.52260000
H       -0.09770000       1.92010000      -1.01360000
H       -0.97040000       1.89300000       0.52450000
H       -1.36500000      -0.36840000      -1.64100000
H       -1.15650000      -1.74620000      -0.55280000
H       -2.15000000      -0.36760000      -0.05520000
H        1.37500000      -1.56470000      -0.78190000
H        2.19690000      -0.00780000      -0.28930000
H        0.22980000      -1.65070000       1.45990000
H        0.59330000       0.88560000       4.10800000
H       -0.20180000      -0.69790000       3.64240000
H        1.99660000      -1.75190000       3.16650000
H        2.89280000      -0.21660000       3.61030000
