18
Properties=species:S:1:pos:R:3 gdb_90945=T pbc="F F F"
C       -0.40060000       1.50690000       0.07960000
C        0.06260000       0.05220000      -0.01700000
N        0.89710000      -0.16130000      -1.22790000
C        2.19650000      -0.72760000      -0.95370000
C        2.37790000      -1.69830000       0.20710000
O        1.25950000      -1.73790000       1.07080000
C        0.88350000      -0.37230000       1.20810000
O        2.09310000       0.37080000       1.24780000
C        2.90930000      -0.28880000       0.30570000
H        0.46270000       2.17020000       0.17290000
H       -0.95500000       1.78680000      -0.82020000
H       -1.05490000       1.65650000       0.94650000
H       -0.81430000      -0.60750000      -0.04650000
H        0.40580000      -0.75210000      -1.88740000
H        2.81080000      -0.87390000      -1.83700000
H        2.95210000      -2.61570000       0.19610000
H        0.34840000      -0.23700000       2.15030000
H        3.94690000       0.01460000       0.34880000
