16
Properties=species:S:1:pos:R:3 gdb_95747=T pbc="F F F"
O       -0.08050000       1.43770000       0.02830000
C        0.01510000       0.02040000       0.00370000
C       -1.41720000      -0.52020000      -0.01540000
O       -1.41100000      -1.91090000      -0.27710000
C       -0.97360000      -2.22810000      -1.57720000
C        0.29230000      -1.48230000      -1.96180000
C        0.74890000      -0.46470000      -1.22160000
C        0.94870000      -1.90320000      -3.15670000
N        1.45160000      -2.27770000      -4.13070000
H        0.78260000       1.80210000       0.24790000
H        0.52540000      -0.35270000       0.90590000
H       -1.89950000      -0.38090000       0.95390000
H       -1.99010000       0.03440000      -0.77420000
H       -0.79550000      -3.30780000      -1.59570000
H       -1.75730000      -2.01190000      -2.32390000
H        1.65540000       0.06160000      -1.50770000
