21
Properties=species:S:1:pos:R:3 gdb_59062=T pbc="F F F"
C       -0.04830000       1.52710000      -0.10480000
C        0.02850000       0.01480000       0.11120000
O        0.72790000      -0.30650000       1.31560000
C       -1.34870000      -0.62050000       0.08780000
C       -1.92760000      -1.23750000      -1.16860000
O       -1.12430000      -1.17990000      -2.31430000
C       -1.54410000      -2.11270000       0.01220000
C       -0.37680000      -3.06730000      -0.07290000
O       -2.60530000      -2.55000000       0.82790000
H        0.95230000       1.96590000      -0.06470000
H       -0.49630000       1.75630000      -1.07670000
H       -0.66260000       2.00150000       0.67100000
H        0.63890000      -0.41870000      -0.68430000
H        0.19350000       0.00520000       2.05450000
H       -2.08370000      -0.12050000       0.71600000
H       -2.99470000      -1.09260000      -1.33930000
H       -1.27930000      -1.97660000      -2.83230000
H        0.35230000      -2.73990000      -0.81650000
H        0.12730000      -3.14830000       0.89290000
H       -0.72700000      -4.06570000      -0.36650000
H       -2.95120000      -3.36700000       0.45020000
