18
Properties=species:S:1:pos:R:3 gdb_118336=T pbc="F F F"
N        0.45520000       0.90890000      -0.40700000
C        0.30520000      -0.32630000       0.11430000
O        1.16690000      -0.93410000       0.72690000
N       -0.96940000      -0.93240000      -0.10390000
C       -1.12430000      -2.28300000       0.44230000
C       -1.61320000      -2.28680000       1.88440000
O       -2.93580000      -1.76560000       1.89760000
C       -2.07500000      -0.33310000      -0.66890000
N       -2.10360000       0.85340000      -1.14630000
H        1.32680000       1.36960000      -0.21240000
H       -0.34110000       1.37590000      -0.83720000
H       -1.83620000      -2.82950000      -0.18330000
H       -0.15430000      -2.77570000       0.38860000
H       -1.58690000      -3.32010000       2.26480000
H       -0.92900000      -1.68290000       2.49380000
H       -3.16320000      -1.53070000       2.80120000
H       -2.93810000      -1.00130000      -0.65910000
H       -3.02570000       1.06680000      -1.51390000
