24
Properties=species:S:1:pos:R:3 gdb_122283=T pbc="F F F"
C        0.06710000       1.57030000       0.02900000
C        0.01660000       0.04060000      -0.00260000
C       -1.41020000      -0.51720000       0.02390000
C       -1.46550000      -2.05020000      -0.00740000
C       -2.87080000      -2.60560000       0.01920000
C       -4.03920000      -2.39460000      -0.98020000
N       -4.68180000      -3.33480000       0.05330000
C       -3.33790000      -4.08130000      -0.00180000
C       -3.98090000      -2.44240000       1.09130000
H        1.09810000       1.93700000       0.00910000
H       -0.45610000       2.00210000      -0.83150000
H       -0.40850000       1.96400000       0.93430000
H        0.53060000      -0.32530000      -0.90150000
H        0.57780000      -0.36310000       0.85070000
H       -1.92550000      -0.15280000       0.92320000
H       -1.97270000      -0.11540000      -0.83010000
H       -0.95460000      -2.41890000      -0.90790000
H       -0.90680000      -2.45630000       0.84750000
H       -4.51400000      -1.41010000      -1.02460000
H       -3.95150000      -2.83750000      -1.97700000
H       -3.19510000      -4.65500000      -0.92270000
H       -3.14430000      -4.69670000       0.88220000
H       -3.83780000      -2.93070000       2.06010000
H       -4.45120000      -1.46160000       1.20780000
