21
Properties=species:S:1:pos:R:3 gdb_117649=T pbc="F F F"
C       -0.09860000       1.32330000       0.34080000
O       -0.04860000      -0.07350000       0.15220000
C       -1.31490000      -0.65310000      -0.09830000
C       -1.10040000      -2.17570000      -0.14600000
C       -0.26110000      -2.57940000      -1.37090000
O       -0.47120000      -2.59080000       1.05860000
C       -2.48230000      -2.84610000      -0.23970000
C       -2.84550000      -3.86180000       0.81750000
O       -3.22630000      -2.54500000      -1.14680000
H        0.92060000       1.66260000       0.53950000
H       -0.47840000       1.83760000      -0.55430000
H       -0.73980000       1.59390000       1.19340000
H       -2.01380000      -0.39920000       0.71500000
H       -1.74420000      -0.29700000      -1.04390000
H        0.67350000      -2.01290000      -1.37990000
H       -0.02360000      -3.64570000      -1.32450000
H       -0.81140000      -2.37750000      -2.29320000
H        0.22010000      -1.93820000       1.22820000
H       -2.83250000      -3.39140000       1.80550000
H       -3.83040000      -4.27640000       0.60100000
H       -2.09140000      -4.65420000       0.85530000
