17
Properties=species:S:1:pos:R:3 gdb_26679=T pbc="F F F"
C        0.17230000       1.52960000       0.01170000
C        0.10390000       0.03530000      -0.00580000
C       -0.05450000      -0.78070000      -1.10650000
N       -0.20700000      -0.54040000      -2.49190000
N       -0.04740000      -2.09860000      -0.66720000
C        0.10200000      -2.12630000       0.68640000
O        0.15370000      -3.30780000       1.35150000
C        0.19580000      -0.83140000       1.13140000
O        0.43590000      -0.50300000       2.45460000
H        1.07040000       1.88600000       0.52940000
H        0.19160000       1.92900000      -1.00700000
H       -0.68820000       1.98380000       0.52110000
H       -1.01360000       0.03890000      -2.69760000
H        0.60520000      -0.08830000      -2.89910000
H       -0.14140000      -2.89700000      -1.27060000
H        0.32210000      -3.08730000       2.27560000
H       -0.32060000      -0.01320000       2.79480000
