21
Properties=species:S:1:pos:R:3 gdb_41738=T pbc="F F F"
C        0.30090000       1.45990000      -0.40490000
C        1.51940000       1.93930000       0.42280000
C        2.12530000       0.67260000       1.01450000
C        2.34480000      -0.49240000       0.08290000
O        3.13950000      -1.55930000       0.53740000
C        2.60500000      -2.02780000       1.77810000
C        1.11210000      -1.63530000       1.80270000
C        1.07080000      -0.43210000       0.88430000
C       -0.18700000       0.16870000       0.29180000
H       -0.48020000       2.22090000      -0.47750000
H        0.61230000       1.22900000      -1.42910000
H        2.22680000       2.51570000      -0.18360000
H        1.19180000       2.59250000       1.24050000
H        2.76080000       0.75850000       1.89030000
H        2.41400000      -0.37080000      -0.99360000
H        2.77650000      -3.10670000       1.83120000
H        3.13840000      -1.56040000       2.61760000
H        0.48520000      -2.43460000       1.38970000
H        0.76540000      -1.43210000       2.82130000
H       -0.89380000       0.40740000       1.09730000
H       -0.70410000      -0.50680000      -0.39950000
