15
Properties=species:S:1:pos:R:3 gdb_72808=T pbc="F F F"
O        0.08320000       1.44050000      -0.10890000
C        0.03420000       0.04400000       0.01870000
C        0.18860000      -0.80690000      -1.27430000
O       -1.07010000      -1.46360000      -1.02600000
C       -1.36750000      -0.58550000       0.09210000
C       -1.40710000      -1.39100000       1.40380000
O       -2.35170000      -1.99590000       1.84600000
C       -0.03840000      -1.29790000       1.98040000
C        0.74010000      -0.50420000       1.23530000
H        0.99550000       1.73300000      -0.00580000
H        0.15260000      -0.18370000      -2.17630000
H        1.02460000      -1.51290000      -1.33100000
H       -2.23910000       0.05070000      -0.07830000
H        0.24070000      -1.81310000       2.89100000
H        1.78020000      -0.26730000       1.44320000
