13
Properties=species:S:1:pos:R:3 gdb_2630=T pbc="F F F"
O       -0.17320000       0.17680000       0.58400000
C        0.07070000       1.06910000      -0.18270000
C        1.34880000       1.88970000      -0.13340000
O        1.29740000       2.83700000      -1.17020000
C        2.44810000       3.66220000      -1.21730000
C        2.32970000       4.61690000      -2.31010000
C        2.25790000       5.41490000      -3.20400000
H       -0.62190000       1.37200000      -0.99790000
H        1.42780000       2.36410000       0.85970000
H        2.21150000       1.20910000      -0.23440000
H        2.57220000       4.20030000      -0.26230000
H        3.35410000       3.04770000      -1.35410000
H        2.18860000       6.11860000      -3.99660000
