21
Properties=species:S:1:pos:R:3 gdb_72089=T pbc="F F F"
C       -0.02870000       1.50830000       0.03850000
C        0.03460000       0.00230000       0.02480000
C        0.30440000      -0.73280000      -1.28450000
C        0.53790000      -2.17750000      -0.80450000
C        1.39110000      -2.00620000       0.46890000
C        0.71480000      -0.80940000       1.12120000
C       -0.79220000      -0.82120000       0.98690000
C       -1.47180000      -2.08770000       0.49670000
O       -0.70700000      -2.79320000      -0.48130000
H        0.89470000       1.94780000      -0.35800000
H       -0.85940000       1.88010000      -0.57330000
H       -0.17040000       1.89160000       1.05450000
H       -0.52300000      -0.68410000      -2.00020000
H        1.20060000      -0.32840000      -1.77270000
H        0.99250000      -2.82470000      -1.55690000
H        1.37630000      -2.91750000       1.07500000
H        2.43420000      -1.77940000       0.21760000
H        1.16940000      -0.32110000       1.97640000
H       -1.35870000      -0.27350000       1.73510000
H       -1.65800000      -2.76500000       1.34340000
H       -2.45170000      -1.84530000       0.05920000
