24
Properties=species:S:1:pos:R:3 gdb_6804=T pbc="F F F"
C        0.12520000       1.56320000      -0.01240000
C        0.00910000       0.04800000      -0.01750000
O        0.66610000      -0.45070000      -1.16250000
C        0.63340000      -1.85910000      -1.25890000
C        1.35110000      -2.26810000      -2.53980000
C        1.54070000      -3.78450000      -2.71470000
C        0.20730000      -4.53720000      -2.84130000
C        2.43700000      -4.07140000      -3.92720000
H        1.17580000       1.86640000       0.00910000
H       -0.33380000       1.98580000      -0.91070000
H       -0.37620000       1.98280000       0.86500000
H        0.45950000      -0.37650000       0.89670000
H       -1.05140000      -0.25880000      -0.02130000
H        1.12840000      -2.31400000      -0.38180000
H       -0.41080000      -2.21300000      -1.25530000
H        0.80250000      -1.86080000      -3.39920000
H        2.33170000      -1.77730000      -2.53770000
H        2.05750000      -4.16280000      -1.82030000
H        0.37670000      -5.60880000      -2.99070000
H       -0.41870000      -4.42510000      -1.95100000
H       -0.36690000      -4.17010000      -3.70080000
H        3.40810000      -3.57440000      -3.83210000
H        2.61770000      -5.14530000      -4.04170000
H        1.96980000      -3.71310000      -4.85230000
