21
Properties=species:S:1:pos:R:3 gdb_65342=T pbc="F F F"
C       -0.08130000       1.55640000      -0.07460000
C        0.00840000       0.03840000      -0.00300000
C        1.35690000      -0.63400000      -0.24130000
C        0.76740000      -0.64470000       1.14150000
C        1.37730000       0.12060000       2.27210000
C        0.68510000       0.17070000       3.61340000
C        1.95340000      -0.62850000       3.45170000
C       -1.16030000      -0.64770000      -0.48860000
C       -2.14750000      -1.20580000      -0.89220000
H        0.84300000       2.02750000       0.26800000
H       -0.26130000       1.87790000      -1.10490000
H       -0.90370000       1.92950000       0.54350000
H        1.37440000      -1.55510000      -0.81170000
H        2.19660000       0.02910000      -0.42660000
H        0.32650000      -1.58960000       1.44820000
H        1.91680000       1.01750000       1.98430000
H        0.72450000       1.09470000       4.17960000
H       -0.24740000      -0.37400000       3.71780000
H        1.87500000      -1.71070000       3.44730000
H        2.86400000      -0.25220000       3.90450000
H       -3.01570000      -1.70150000      -1.24890000
