25
Properties=species:S:1:pos:R:3 gdb_118776=T pbc="F F F"
C       -0.15500000       1.59010000       0.22780000
C       -0.27050000       0.07590000       0.41910000
C       -1.23810000      -0.57610000      -0.58100000
C       -1.35300000      -2.08760000      -0.39520000
C       -0.21490000      -2.85160000      -1.05270000
O       -1.68890000      -2.52320000       0.93870000
C       -2.65390000      -2.74850000      -0.10480000
C       -3.94010000      -1.95370000       0.03510000
C       -2.90980000      -4.20150000      -0.46270000
H        0.52940000       2.03210000       0.95880000
H        0.21970000       1.83900000      -0.77160000
H       -1.12800000       2.08040000       0.34550000
H        0.72380000      -0.37880000       0.32920000
H       -0.61860000      -0.15150000       1.43240000
H       -2.21380000      -0.09190000      -0.48990000
H       -0.89580000      -0.38170000      -1.60610000
H       -0.14970000      -3.87710000      -0.69000000
H       -0.33840000      -2.86860000      -2.14140000
H        0.74240000      -2.36560000      -0.83790000
H       -3.76940000      -0.97890000       0.49160000
H       -4.42240000      -1.80970000      -0.93830000
H       -4.64290000      -2.49930000       0.67430000
H       -3.52740000      -4.66870000       0.31220000
H       -3.45950000      -4.27000000      -1.40820000
H       -1.99350000      -4.78320000      -0.55560000
