17
Properties=species:S:1:pos:R:3 gdb_19079=T pbc="F F F"
C       -0.05810000       1.61300000       0.01380000
C        0.05410000       0.10630000      -0.13220000
C        0.62160000      -0.82150000      -1.15150000
C        1.98660000      -0.57380000      -1.82330000
C        2.64330000       0.70960000      -1.52670000
O        2.05030000       1.94920000      -1.75600000
C        2.51080000      -0.31160000      -0.39970000
N        1.20540000      -0.74240000       0.24180000
H        0.87720000       2.05880000       0.34910000
H       -0.34700000       2.09960000      -0.91840000
H       -0.81730000       1.83070000       0.77130000
H       -0.82200000      -0.38310000       0.29760000
H        0.05960000      -1.70580000      -1.44090000
H        2.34700000      -1.26920000      -2.57160000
H        3.68970000       0.68060000      -1.84690000
H        2.50250000       2.60410000      -1.21300000
H        3.40170000      -0.68420000       0.09300000
