21
Properties=species:S:1:pos:R:3 gdb_77385=T pbc="F F F"
C        0.03660000       1.46150000      -0.02020000
C        0.03840000      -0.04140000      -0.05870000
C        0.52950000      -0.97540000      -1.18210000
O        1.88450000      -0.96080000      -1.56950000
C        0.04670000      -1.96330000      -0.10200000
C        0.05790000      -3.46630000      -0.13140000
C        0.55500000      -1.02600000       1.06540000
C       -0.81450000      -1.04780000       1.76930000
C       -1.15420000      -1.01530000       0.26690000
H        1.04950000       1.85410000      -0.16260000
H       -0.59190000       1.87390000      -0.81740000
H       -0.34030000       1.84220000       0.93540000
H       -0.04770000      -0.95680000      -2.11400000
H        2.42570000      -0.97650000      -0.77230000
H        1.07420000      -3.84340000      -0.29110000
H       -0.31560000      -3.89300000       0.80600000
H       -0.56710000      -3.84780000      -0.94660000
H        1.54790000      -1.03200000       1.52280000
H       -1.07560000      -1.95880000       2.31720000
H       -1.08340000      -0.16480000       2.35770000
H       -2.13090000      -1.00850000      -0.22160000
