15
Properties=species:S:1:pos:R:3 gdb_42514=T pbc="F F F"
O        0.05690000      -0.01860000       0.38630000
C       -0.01430000       1.16050000       0.23860000
C       -1.16350000       2.21790000       0.11720000
O       -0.13890000       3.24630000      -0.02640000
C        0.93120000       2.30620000       0.09350000
C        2.21660000       2.58080000       0.82050000
C        2.21720000       2.39360000      -0.67680000
C       -2.05710000       2.09990000      -1.01180000
C       -2.79360000       1.97320000      -1.95290000
H       -1.71480000       2.34610000       1.05740000
H        2.33500000       3.58910000       1.20190000
H        2.61310000       1.79250000       1.45140000
H        2.61260000       1.47370000      -1.09380000
H        2.33420000       3.27640000      -1.29550000
H       -3.44760000       1.86660000      -2.78320000
