23
Properties=species:S:1:pos:R:3 gdb_110629=T pbc="F F F"
C       -0.66160000       1.46760000      -0.42370000
C        0.03660000       0.20850000       0.10660000
C        0.80750000      -0.51570000      -1.00420000
C        2.13520000      -1.25000000      -0.99850000
C        2.37180000      -2.29440000       0.12260000
C        1.26930000      -2.41890000       1.13510000
C        1.07210000      -2.99020000      -0.24600000
C        0.84770000      -1.96950000      -1.40610000
C        0.41710000      -2.47220000      -2.75470000
H        0.06400000       2.17800000      -0.83520000
H       -1.37090000       1.21870000      -1.22070000
H       -1.21610000       1.97840000       0.36980000
H        0.71410000       0.49390000       0.91920000
H       -0.71860000      -0.45350000       0.54240000
H        0.77930000       0.07620000      -1.92170000
H        2.94580000      -0.92780000      -1.64270000
H        3.34400000      -2.74440000       0.27860000
H        1.45700000      -3.18270000       1.88600000
H        0.71950000      -1.57240000       1.51730000
H        0.90470000      -4.04920000      -0.39980000
H       -0.64300000      -2.75800000      -2.75550000
H        0.55490000      -1.70640000      -3.52500000
H        0.99350000      -3.35620000      -3.05400000
