17
Properties=species:S:1:pos:R:3 gdb_42758=T pbc="F F F"
O       -0.00870000      -0.00320000       0.04020000
C       -0.03200000       1.18570000      -0.01800000
C       -1.08830000       2.30050000       0.04710000
C       -0.04110000       3.01330000       0.96160000
C        1.03070000       2.33370000       0.02780000
C        0.72280000       3.02450000      -1.33080000
C       -0.84550000       2.99820000      -1.31000000
C        2.39550000       2.12930000       0.41270000
C        3.53900000       1.94130000       0.73470000
H       -2.11130000       2.10900000       0.36150000
H       -0.04930000       4.10550000       0.95190000
H       -0.01280000       2.62970000       1.98210000
H        1.12860000       4.03860000      -1.35090000
H        1.15000000       2.47070000      -2.16950000
H       -1.26740000       2.43590000      -2.14650000
H       -1.27570000       4.00280000      -1.32500000
H        4.54700000       1.77080000       1.02140000
