19
Properties=species:S:1:pos:R:3 gdb_101092=T pbc="F F F"
C       -0.82940000       1.62320000       0.23560000
O       -0.42940000       0.31110000       0.55920000
C       -1.13210000      -0.70680000      -0.13210000
C       -0.47180000      -1.01870000      -1.47900000
C       -1.16720000      -1.92780000       0.78110000
C       -0.10630000      -2.15340000       1.78770000
O       -1.38750000      -1.69400000       2.18270000
C       -1.93100000      -3.14140000       0.34030000
O       -2.42470000      -3.30860000      -0.74590000
H       -0.23370000       2.29980000       0.85290000
H       -0.65200000       1.86860000      -0.82180000
H       -1.89480000       1.78660000       0.45650000
H       -2.17410000      -0.39150000      -0.29970000
H        0.55470000      -1.36530000      -1.32450000
H       -1.03400000      -1.78500000      -2.01440000
H       -0.43710000      -0.11670000      -2.09640000
H        0.14830000      -3.16700000       2.09640000
H        0.68780000      -1.41340000       1.83810000
H       -2.03620000      -3.88810000       1.15790000
