15
Properties=species:S:1:pos:R:3 gdb_1138=T pbc="F F F"
C       -0.26300000       1.57140000      -0.04740000
C        0.01050000       0.07240000      -0.00350000
O       -1.17640000      -0.68120000      -0.15690000
C        1.21680000      -0.38020000      -0.90450000
C        2.03120000      -0.56920000       0.38310000
O        3.19660000      -0.71360000       0.61370000
C        0.78570000      -0.40140000       1.26190000
H        0.65050000       2.14960000       0.12530000
H       -0.65730000       1.86550000      -1.02800000
H       -0.99680000       1.84590000       0.71610000
H       -1.62600000      -0.37720000      -0.95300000
H        1.00970000      -1.33930000      -1.39020000
H        1.61660000       0.32260000      -1.64020000
H        0.86250000       0.28340000       2.10980000
H        0.40700000      -1.36730000       1.61130000
