19
Properties=species:S:1:pos:R:3 gdb_36435=T pbc="F F F"
N       -0.18290000      -1.12520000       0.00140000
C       -0.10010000       0.02720000      -0.00790000
C        0.00410000       1.48560000      -0.01950000
C        1.45110000       1.98840000       0.00010000
C        1.68570000       3.51100000       0.19690000
C        2.72650000       3.11390000       1.27320000
C        2.27250000       3.16280000       2.74420000
C        1.71530000       1.72990000       2.52660000
N        2.33830000       1.64720000       1.16120000
H       -0.47860000       1.86300000      -0.92890000
H       -0.57100000       1.88550000       0.82230000
H        1.94430000       1.61920000      -0.90540000
H        2.06050000       4.05390000      -0.67340000
H        0.82350000       4.05240000       0.60040000
H        3.76540000       3.37130000       1.05080000
H        3.09810000       3.20850000       3.45730000
H        1.54870000       3.94200000       2.99750000
H        2.11780000       0.96220000       3.19230000
H        0.62440000       1.64730000       2.55030000
