17
Properties=species:S:1:pos:R:3 gdb_70467=T pbc="F F F"
O       -0.10320000       1.43070000      -0.11890000
C       -0.04870000       0.05520000      -0.03980000
C       -0.41040000      -0.87670000      -1.17960000
C       -1.15410000      -0.95280000       0.12720000
O       -0.41000000      -1.71420000       1.08110000
C        0.64620000      -0.71050000       1.09050000
C        2.05150000      -1.27760000       0.89360000
C        2.50350000      -2.08710000       2.01830000
C        2.86160000      -2.74320000       2.95880000
H        0.49800000       1.72200000      -0.81290000
H       -0.95630000      -0.37580000      -1.97410000
H        0.22870000      -1.69670000      -1.49480000
H       -2.22600000      -0.86750000       0.25400000
H        0.59520000      -0.13750000       2.02420000
H        2.08010000      -1.86930000      -0.02830000
H        2.73570000      -0.42960000       0.74990000
H        3.17820000      -3.33030000       3.78480000
