19
Properties=species:S:1:pos:R:3 gdb_86728=T pbc="F F F"
C        0.33000000       1.16900000       0.13350000
C       -0.03550000      -0.29500000       0.22650000
O        0.77610000      -1.13490000       0.55690000
C       -1.49050000      -0.67340000      -0.08720000
C       -1.61360000      -2.05240000      -0.78250000
C       -1.81780000      -3.07760000       0.36290000
O       -0.62320000      -3.71700000       0.77840000
C       -2.40290000      -2.21090000       1.46270000
C       -2.21920000      -0.91250000       1.22910000
H        1.35540000       1.32920000       0.46810000
H        0.22070000       1.51070000      -0.90260000
H       -0.36080000       1.77050000       0.73570000
H       -1.95000000       0.13250000      -0.66930000
H       -2.49720000      -2.03580000      -1.42740000
H       -0.74690000      -2.31410000      -1.39260000
H       -2.48900000      -3.88850000       0.06230000
H        0.03420000      -3.01240000       0.89510000
H       -2.84410000      -2.63270000       2.35860000
H       -2.48640000      -0.10030000       1.89650000
