19
Properties=species:S:1:pos:R:3 gdb_72511=T pbc="F F F"
C       -0.02040000       1.52550000       0.02660000
C       -0.02570000       0.00140000       0.04920000
C        0.69880000      -0.60920000      -1.21610000
O        0.67920000      -2.02200000      -1.16950000
C       -0.00280000      -2.51800000       0.03110000
C        0.74190000      -1.94250000       1.21930000
C        0.73840000      -0.61120000       1.21430000
C       -1.40890000      -1.95320000      -0.00690000
C       -1.41280000      -0.62190000      -0.01220000
H        1.00210000       1.91730000       0.01660000
H       -0.53550000       1.90970000      -0.86000000
H       -0.52570000       1.93000000       0.90960000
H        0.18860000      -0.26720000      -2.12660000
H        1.73960000      -0.25950000      -1.24230000
H        0.04260000      -3.60360000      -0.03890000
H        1.26690000      -2.57110000       1.92780000
H        1.27730000       0.02080000       1.91170000
H       -2.28120000      -2.58880000      -0.09510000
H       -2.29220000       0.00300000      -0.12330000
