15
Properties=species:S:1:pos:R:3 gdb_78134=T pbc="F F F"
O       -0.45980000       1.48160000       0.11560000
C       -0.27900000       0.11250000       0.04590000
C       -1.37100000      -0.90500000      -0.03200000
C       -0.40280000      -0.74790000      -1.21880000
C       -1.60170000      -0.27750000      -2.01960000
O       -1.80880000       0.07230000      -3.13970000
N       -2.45740000      -0.40800000      -0.88100000
C       -3.59730000       0.26710000      -0.46590000
N       -4.29280000       0.98380000      -1.24790000
H       -1.17740000       1.75190000      -0.46910000
H        0.56740000      -0.17220000       0.66550000
H       -1.51900000      -1.76330000       0.61110000
H        0.38310000      -1.40040000      -1.57120000
H       -3.80320000       0.07660000       0.59580000
H       -5.09370000       1.36950000      -0.75090000
