18
Properties=species:S:1:pos:R:3 gdb_22485=T pbc="F F F"
O        0.34590000       1.03070000       0.79790000
C        0.02420000       0.13560000      -0.24840000
C       -1.38860000      -0.41660000      -0.13190000
C       -1.61690000      -1.90020000      -0.02810000
C       -1.26760000      -2.64320000      -1.34360000
C       -1.43520000      -4.08560000      -1.22690000
C       -1.58160000      -5.27200000      -1.10330000
N       -2.43360000       0.31910000      -0.10400000
O       -2.10650000       1.69060000      -0.22940000
H       -0.31010000       1.73700000       0.74890000
H        0.13740000       0.60670000      -1.23820000
H        0.74760000      -0.68260000      -0.18970000
H       -0.99830000      -2.30570000       0.78120000
H       -2.66300000      -2.08560000       0.22500000
H       -1.90530000      -2.25880000      -2.14890000
H       -0.23380000      -2.42080000      -1.63780000
H       -1.70740000      -6.32190000      -1.00720000
H       -2.96700000       2.11490000      -0.15080000
