15
Properties=species:S:1:pos:R:3 gdb_8806=T pbc="F F F"
C       -0.06150000       1.41850000      -0.01140000
N       -0.02610000      -0.01850000       0.15390000
C        0.76920000      -0.63360000       1.05890000
O        1.53560000      -0.09600000       1.83110000
C        0.57510000      -2.16460000       0.98700000
O       -0.18870000      -2.70170000       0.21770000
O        1.34500000      -2.79350000       1.86600000
C        1.23150000      -4.22460000       1.87130000
H        0.64160000       1.85000000       0.70260000
H        0.23440000       1.70800000      -1.02560000
H       -1.06300000       1.81560000       0.18710000
H       -0.60420000      -0.62280000      -0.41110000
H        0.20770000      -4.52510000       2.10710000
H        1.50410000      -4.63240000       0.89480000
H        1.92140000      -4.57090000       2.63970000
