19
Properties=species:S:1:pos:R:3 gdb_109286=T pbc="F F F"
O        0.10920000       1.41900000      -0.15410000
C        0.01470000       0.01680000      -0.00200000
C       -1.42530000      -0.41860000       0.05650000
C       -2.43980000       0.44560000       0.02490000
C       -3.88830000       0.04140000       0.08170000
C       -4.09710000      -1.43470000      -0.30980000
C       -3.08160000      -2.32890000       0.37440000
O       -3.38470000      -3.30650000       1.01680000
C       -1.62680000      -1.91250000       0.18150000
H        1.03880000       1.66080000      -0.12870000
H        0.51140000      -0.51150000      -0.83660000
H        0.52450000      -0.32170000       0.91780000
H       -2.21640000       1.50510000      -0.03820000
H       -4.28370000       0.21560000       1.09290000
H       -4.48340000       0.68290000      -0.57870000
H       -5.10210000      -1.79020000      -0.07300000
H       -3.94310000      -1.53230000      -1.39340000
H       -1.25500000      -2.42220000      -0.72240000
H       -1.04670000      -2.33120000       1.01260000
