22
Properties=species:S:1:pos:R:3 gdb_82482=T pbc="F F F"
C       -0.18210000       1.61140000      -0.01080000
C        0.04540000       0.10820000       0.01770000
C        1.09560000      -0.57560000      -0.88640000
C        2.50690000       0.04120000      -0.86900000
C        2.74140000      -0.69150000       0.47130000
C        4.05740000      -1.39510000       0.69070000
C        2.07480000       0.02400000       1.66810000
C        0.73870000      -0.58990000       1.20920000
N        1.46930000      -1.54110000       0.24890000
H        0.74350000       2.17280000       0.15060000
H       -0.59500000       1.92640000      -0.97560000
H       -0.89180000       1.91450000       0.76690000
H       -0.90910000      -0.40480000      -0.14840000
H        0.74590000      -0.99570000      -1.83230000
H        3.13210000      -0.37460000      -1.66440000
H        2.60500000       1.13090000      -0.88610000
H        4.86450000      -0.66560000       0.83330000
H        4.01600000      -2.03530000       1.57790000
H        4.31360000      -2.02320000      -0.16870000
H        2.40250000      -0.40380000       2.62010000
H        2.15930000       1.11310000       1.73110000
H        0.09660000      -1.02160000       1.98050000
