21
Properties=species:S:1:pos:R:3 gdb_105371=T pbc="F F F"
C        1.19800000      -1.32490000       0.33410000
O        2.06480000      -1.12690000      -0.76750000
C        1.43550000      -1.15720000      -2.02340000
C        0.59780000       0.06820000      -2.34690000
C        1.41130000       1.34330000      -2.31550000
C        1.89420000       1.99870000      -3.53680000
O        0.77190000       2.51810000      -2.82040000
C        2.26390000      -1.80000000      -3.09410000
C        1.03810000      -2.51240000      -2.55490000
H        0.48530000      -0.49820000       0.46150000
H        0.63040000      -2.26100000       0.23980000
H        1.82870000      -1.37850000       1.22460000
H        0.13830000      -0.04790000      -3.33380000
H       -0.22900000       0.15770000      -1.63040000
H        1.97980000       1.50300000      -1.39970000
H        2.79370000       2.61240000      -3.50830000
H        1.66500000       1.56110000      -4.50830000
H        2.22740000      -1.38450000      -4.09500000
H        3.23190000      -2.18220000      -2.79220000
H        1.21150000      -3.36540000      -1.90830000
H        0.15860000      -2.59160000      -3.18470000
