20
Properties=species:S:1:pos:R:3 gdb_116242=T pbc="F F F"
C        0.01770000       1.62070000      -0.23350000
C        0.02340000       0.09050000      -0.14790000
C       -1.36140000      -0.52200000       0.06580000
C       -1.39890000      -2.05850000       0.13850000
C       -2.73070000      -2.34590000       0.84860000
O       -3.10970000      -1.13530000       1.53170000
C       -2.09380000      -0.16290000       1.38260000
C       -1.18380000      -0.17030000       2.55340000
N       -0.47150000      -0.18130000       3.46370000
H        1.02050000       2.00220000      -0.44590000
H       -0.64840000       1.97400000      -1.02860000
H       -0.31040000       2.07530000       0.70700000
H        0.43860000      -0.32560000      -1.07370000
H        0.68940000      -0.23210000       0.66110000
H       -2.03050000      -0.18820000      -0.73770000
H       -1.34070000      -2.52600000      -0.84690000
H       -0.55380000      -2.42190000       0.73260000
H       -3.53330000      -2.58980000       0.14350000
H       -2.65290000      -3.16080000       1.57590000
H       -2.57380000       0.81960000       1.34150000
