19
Properties=species:S:1:pos:R:3 gdb_8181=T pbc="F F F"
C       -0.07250000       1.53890000       0.06720000
C        0.06070000       0.01870000       0.05180000
C        1.01210000      -0.58650000      -1.03250000
N        1.98890000      -1.39160000      -0.22710000
C        2.28590000      -0.40190000       0.87850000
C        0.78870000      -0.59220000       1.26600000
O        0.21590000      -0.24810000       2.48540000
C        1.03720000      -2.04110000       0.75710000
H        0.90180000       2.03600000       0.12430000
H       -0.56920000       1.89460000      -0.84180000
H       -0.66510000       1.86540000       0.92700000
H       -0.94200000      -0.41860000      -0.01580000
H        0.50190000      -1.24000000      -1.74450000
H        1.55180000       0.18050000      -1.59580000
H        2.98340000      -0.84090000       1.59780000
H        2.64910000       0.57460000       0.54860000
H        0.73060000      -0.65040000       3.19250000
H        0.21060000      -2.60120000       0.30960000
H        1.59230000      -2.67250000       1.45690000
