19
Properties=species:S:1:pos:R:3 gdb_100574=T pbc="F F F"
C        0.00230000       1.64280000       0.07120000
C        0.01050000       0.11260000       0.07050000
N        0.72250000      -0.45760000       1.21990000
C       -0.06990000      -0.70280000       2.41130000
C        2.06400000      -0.67070000       1.08660000
O        2.67520000      -0.39800000       0.07130000
C        2.78960000      -1.29230000       2.30090000
C        4.19830000      -1.54460000       2.01740000
N        5.31820000      -1.76870000       1.85090000
H        1.02370000       2.02390000      -0.00320000
H       -0.56740000       2.01720000      -0.78490000
H       -0.45620000       2.04530000       0.98050000
H       -1.01170000      -0.28090000       0.09150000
H        0.49980000      -0.25540000      -0.83260000
H        0.55130000      -1.00050000       3.25400000
H       -0.61040000       0.20470000       2.70550000
H       -0.81020000      -1.49430000       2.23620000
H        2.72290000      -0.62360000       3.16700000
H        2.31610000      -2.23550000       2.59540000
