18
Properties=species:S:1:pos:R:3 gdb_68461=T pbc="F F F"
C       -0.07630000       1.53410000       0.04200000
C        0.00150000       0.02620000      -0.01610000
C        0.74030000      -0.69270000      -1.18210000
C       -0.34130000      -1.77530000      -0.97370000
C        0.07880000      -2.70190000       0.15720000
O        0.50970000      -1.96020000       1.31630000
C        0.50310000      -0.59670000       1.28960000
O        0.86150000       0.01630000       2.25630000
N       -1.23440000      -0.69890000      -0.46430000
H        0.91090000       1.96370000       0.23160000
H       -0.46360000       1.91720000      -0.90530000
H       -0.73600000       1.85980000       0.85120000
H        0.60580000      -0.15020000      -2.11860000
H        1.78640000      -0.97010000      -1.04190000
H       -0.71590000      -2.34050000      -1.83220000
H       -0.75550000      -3.33740000       0.47840000
H        0.90890000      -3.35170000      -0.14340000
H       -1.85640000      -0.98570000       0.29130000
