23
Properties=species:S:1:pos:R:3 gdb_77923=T pbc="F F F"
C        0.52980000       1.46700000      -1.30640000
C        0.40170000      -0.00660000      -0.90810000
C        1.59960000      -1.00730000      -0.92130000
C        2.09940000      -0.43520000       0.45670000
C        2.84400000       0.88100000       0.66720000
C        0.55770000      -0.56240000       0.55770000
O       -0.15180000      -0.19400000       1.68950000
C        0.72740000      -1.99440000      -0.07310000
C       -0.42820000      -2.79830000      -0.65320000
H        1.55920000       1.79010000      -1.46520000
H       -0.00650000       1.64400000      -2.24430000
H        0.08310000       2.12500000      -0.55200000
H       -0.48900000      -0.40540000      -1.39800000
H        2.21860000      -1.26920000      -1.77860000
H        2.61660000      -1.21020000       1.03470000
H        3.17650000       0.93670000       1.70900000
H        3.74160000       0.93140000       0.03990000
H        2.24800000       1.77150000       0.47820000
H       -1.08740000      -0.36150000       1.53190000
H        1.33310000      -2.65210000       0.55980000
H       -1.07620000      -2.23830000      -1.33160000
H       -0.04600000      -3.66190000      -1.20850000
H       -1.05680000      -3.19130000       0.15490000
