16
Properties=species:S:1:pos:R:3 gdb_88725=T pbc="F F F"
O       -0.16110000       1.45930000       0.09350000
C       -0.05980000       0.07010000      -0.01370000
C       -0.47800000      -0.78550000       1.15090000
C       -1.35830000      -0.68700000      -0.08600000
C       -2.64350000       0.05640000      -0.00300000
O       -3.43130000       0.13740000      -1.19370000
C       -3.95990000      -0.61700000      -0.10230000
C       -4.05300000      -2.04980000      -0.28660000
N       -4.13770000      -3.19580000      -0.41140000
H        0.55430000       1.76900000       0.65870000
H        0.75150000      -0.28580000      -0.64740000
H        0.03400000      -1.72160000       1.34160000
H       -0.81770000      -0.25970000       2.03750000
H       -1.38520000      -1.54990000      -0.74240000
H       -2.61500000       0.97990000       0.57210000
H       -4.82280000      -0.17620000       0.39400000
