15
Properties=species:S:1:pos:R:3 gdb_98522=T pbc="F F F"
O        0.01080000       1.42860000       0.21670000
C       -0.18700000       0.09450000       0.57550000
C       -1.19790000      -0.56790000      -0.34080000
O       -1.68490000       0.05820000      -1.25690000
C       -1.62750000      -2.00550000      -0.10740000
C       -3.07380000      -2.30590000      -0.34310000
O       -2.10260000      -2.68530000      -1.28030000
C       -0.92230000      -2.92840000       0.83980000
O       -0.13900000      -2.59090000       1.68900000
H       -0.53250000       1.57270000      -0.57310000
H        0.74780000      -0.48650000       0.53470000
H       -0.53780000       0.00100000       1.61420000
H       -3.54610000      -3.11280000       0.21670000
H       -3.70240000      -1.46430000      -0.62620000
H       -1.20360000      -3.99060000       0.67400000
