17
Properties=species:S:1:pos:R:3 gdb_75973=T pbc="F F F"
C        0.01260000       1.45890000      -0.00040000
N        0.03290000      -0.00690000       0.01470000
C        0.06690000      -0.64940000      -1.22490000
O        0.04540000      -0.01460000      -2.25490000
C        0.09490000      -2.16890000      -1.20410000
N        0.71100000      -2.65950000       0.01630000
C       -0.01560000      -2.19180000       1.18340000
C       -0.04440000      -0.67220000       1.24320000
O       -0.15970000      -0.07710000       2.29040000
H        0.88980000       1.83370000      -0.53110000
H       -0.87920000       1.81610000      -0.52000000
H        0.01140000       1.79860000       1.03240000
H       -0.94990000      -2.50950000      -1.34950000
H        0.66560000      -2.48560000      -2.07910000
H        0.75960000      -3.67160000       0.00950000
H       -1.07080000      -2.52960000       1.22200000
H        0.46890000      -2.53160000       2.10050000
