23
Properties=species:S:1:pos:R:3 gdb_39895=T pbc="F F F"
C       -0.02280000       1.47160000       0.01040000
C        1.29180000       0.71110000      -0.00670000
C       -0.01130000      -0.02500000       0.00200000
C       -0.51280000      -0.91730000       1.13560000
C       -2.02060000      -1.00840000       0.79960000
C       -2.03600000      -0.99980000      -0.76670000
C       -0.53500000      -0.90480000      -1.13130000
C        0.13780000      -2.25720000      -0.79500000
C        0.15320000      -2.26590000       0.77120000
H       -0.29900000       1.98480000       0.92660000
H       -0.31690000       1.99480000      -0.89450000
H        1.87420000       0.72720000      -0.92300000
H        1.89220000       0.71720000       0.89810000
H       -0.30040000      -0.57310000       2.15030000
H       -2.48090000      -1.90620000       1.22300000
H       -2.56030000      -0.14530000       1.19960000
H       -2.50460000      -1.89280000      -1.19090000
H       -2.58330000      -0.13230000      -1.14650000
H       -0.34260000      -0.54940000      -2.14610000
H       -0.41110000      -3.10390000      -1.21820000
H        1.15500000      -2.29480000      -1.19520000
H        1.17800000      -2.30780000       1.15100000
H       -0.38740000      -3.11720000       1.19570000
