12
Properties=species:S:1:pos:R:3 gdb_131023=T pbc="F F F"
O       -0.06910000      -0.03580000      -0.00200000
C        0.00100000       1.15240000       0.00780000
N        1.23430000       1.86970000      -0.00010000
N        2.44650000       1.28760000      -0.01930000
C        3.26940000       2.31930000      -0.01970000
C        2.51420000       3.52380000      -0.00020000
C        3.00970000       4.91590000       0.00640000
O        2.30890000       5.89510000       0.02330000
N        1.22360000       3.20190000       0.01190000
H       -0.83350000       1.86950000       0.02380000
H        4.33950000       2.17770000      -0.03340000
H        4.11870000       4.98860000      -0.00590000
