15
Properties=species:S:1:pos:R:3 gdb_20282=T pbc="F F F"
C       -0.04730000       1.49510000       0.00950000
C        1.46250000       1.26360000      -0.00580000
C        1.18960000       0.10040000       1.00510000
C        2.14520000      -1.05000000       0.70600000
O        1.53860000      -2.12640000      -0.02360000
C        2.13150000      -1.04270000      -0.75350000
C        1.17060000       0.11060000      -1.02310000
N        0.01740000      -0.03810000       0.00120000
H       -0.50140000       1.90300000       0.91690000
H       -0.51830000       1.91210000      -0.88500000
H        2.28330000       1.99120000      -0.00980000
H        0.89460000       0.31340000       2.03330000
H        2.99320000      -1.29640000       1.33580000
H        2.96750000      -1.28250000      -1.40150000
H        0.85640000       0.33390000      -2.04330000
