21
Properties=species:S:1:pos:R:3 gdb_79893=T pbc="F F F"
C       -0.22460000       1.59770000      -0.02150000
C       -0.00400000       0.09250000       0.01860000
C        1.17690000      -0.59340000      -0.73510000
C        2.14400000      -0.08200000       0.37710000
C        3.43100000      -0.86240000       0.61080000
O        3.18340000      -2.17830000       1.07050000
C        2.10430000      -2.79380000       0.39130000
C        0.94240000      -1.83390000       0.17970000
C        0.86340000      -0.58790000       1.12390000
H        0.68790000       2.17890000       0.13370000
H       -0.64510000       1.89570000      -0.98840000
H       -0.94070000       1.89840000       0.75130000
H       -0.95990000      -0.42200000      -0.14180000
H        1.36300000      -0.60250000      -1.81210000
H        2.33520000       0.99280000       0.39050000
H        4.03370000      -0.87530000      -0.31580000
H        4.03720000      -0.38420000       1.38780000
H        2.43320000      -3.20520000      -0.58030000
H        1.79880000      -3.63880000       1.01780000
H        0.00030000      -2.36580000       0.00870000
H        0.68500000      -0.58960000       2.20080000
