19
Properties=species:S:1:pos:R:3 gdb_118047=T pbc="F F F"
O        0.30410000       0.23850000       1.02990000
C       -0.11340000       0.27570000      -0.34160000
C       -1.48970000      -0.36870000      -0.44110000
C       -1.49280000      -1.84470000      -0.03000000
O       -1.24170000      -2.02910000       1.35150000
C       -2.86420000      -2.49650000      -0.31390000
O       -3.20550000      -2.38960000      -1.66790000
C       -2.85190000      -3.95300000       0.10910000
O       -3.10940000      -4.83010000      -0.68360000
H        1.23040000       0.49130000       1.08140000
H       -0.15400000       1.31480000      -0.69730000
H        0.60250000      -0.26890000      -0.97530000
H       -2.19430000       0.17990000       0.19640000
H       -1.84220000      -0.29270000      -1.47410000
H       -0.74370000      -2.37830000      -0.64290000
H       -0.56720000      -1.37990000       1.59860000
H       -3.60370000      -1.98180000       0.32510000
H       -3.33380000      -3.30400000      -1.97060000
H       -2.59280000      -4.16180000       1.16070000
