20
Properties=species:S:1:pos:R:3 gdb_56026=T pbc="F F F"
C       -0.14590000       1.52110000      -0.03530000
C       -0.01020000       0.03150000       0.24350000
O        0.86030000      -0.41320000       0.97100000
N       -0.93820000      -0.76000000      -0.37180000
C       -0.96600000      -2.20520000      -0.22450000
C       -2.23060000      -2.70410000       0.52420000
C       -3.21360000      -3.06160000      -0.62260000
O       -2.54850000      -2.73440000      -1.84440000
C       -1.15700000      -2.87480000      -1.59030000
H        0.82290000       1.90550000      -0.36290000
H       -0.90180000       1.76260000      -0.78720000
H       -0.40040000       2.03170000       0.89800000
H       -1.63010000      -0.34400000      -0.97460000
H       -0.04100000      -2.48110000       0.28120000
H       -1.99510000      -3.58360000       1.12870000
H       -2.61800000      -1.93360000       1.19270000
H       -3.46510000      -4.13190000      -0.60560000
H       -4.14710000      -2.49320000      -0.59390000
H       -0.60810000      -2.38720000      -2.39880000
H       -0.86470000      -3.93680000      -1.54550000
