18
Properties=species:S:1:pos:R:3 gdb_114375=T pbc="F F F"
C        0.08680000       1.21340000       0.28050000
O       -0.25720000      -0.06620000      -0.20790000
C        0.53140000      -0.47820000      -1.28880000
C        1.95180000      -1.04470000      -0.88980000
C        1.49560000      -2.42950000      -1.36760000
C        0.13240000      -1.89430000      -1.72510000
N        1.08740000      -2.28710000      -2.75460000
C        0.90770000      -3.35860000      -3.61180000
O        1.64430000      -4.31140000      -3.69580000
H        1.11470000       1.24370000       0.67100000
H       -0.00840000       1.98130000      -0.50220000
H       -0.60520000       1.44510000       1.09300000
H        0.53060000       0.27150000      -2.09300000
H        2.83130000      -0.63050000      -1.38700000
H        2.07210000      -1.00410000       0.19490000
H        1.77900000      -3.40660000      -0.99840000
H       -0.84510000      -2.35590000      -1.65180000
H        0.04020000      -3.20080000      -4.28120000
