14
Properties=species:S:1:pos:R:3 gdb_124325=T pbc="F F F"
C        0.00100000       1.50860000      -0.10590000
C       -0.00060000       0.01430000       0.07190000
O        0.01280000      -0.57090000       1.12260000
N       -0.02020000      -0.74210000      -1.13730000
C       -0.02580000      -2.10840000      -1.25430000
C       -0.04590000      -2.30260000      -2.60820000
O       -0.05890000      -3.45820000      -3.28790000
N       -0.05170000      -1.09200000      -3.24340000
N       -0.03620000      -0.14800000      -2.35450000
H        0.87060000       1.82410000      -0.68760000
H       -0.88300000       1.82900000      -0.66290000
H        0.01620000       1.96650000       0.88230000
H       -0.01530000      -2.76020000      -0.40120000
H       -0.07190000      -3.23460000      -4.22760000
