19
Properties=species:S:1:pos:R:3 gdb_72134=T pbc="F F F"
C        0.03070000       1.49830000      -0.13750000
C       -0.04930000       0.00690000      -0.04040000
O        0.44320000      -0.73560000      -1.16590000
C       -0.24870000      -1.86620000      -0.56380000
C        0.65390000      -2.15690000       0.64770000
C        0.35580000      -0.79200000       1.30450000
C       -1.15780000      -0.92080000       1.62340000
C       -1.31070000      -0.87720000       0.09250000
O       -2.47840000      -0.56510000      -0.58390000
H        1.07470000       1.81730000      -0.22550000
H       -0.51640000       1.85550000      -1.01430000
H       -0.39460000       1.96820000       0.75430000
H       -0.51630000      -2.64980000      -1.27240000
H        0.33850000      -3.00120000       1.26750000
H        1.68910000      -2.29750000       0.32990000
H        1.05760000      -0.38220000       2.02740000
H       -1.48440000      -1.80320000       2.18180000
H       -1.58280000      -0.01760000       2.06960000
H       -3.06700000      -1.32730000      -0.55770000
