18
Properties=species:S:1:pos:R:3 gdb_97387=T pbc="F F F"
C        0.07170000       1.32060000      -0.17110000
N        0.05430000      -0.07940000       0.19870000
C       -1.01850000      -0.70690000       0.03360000
O       -1.08300000      -2.02800000       0.36190000
C       -2.31030000      -2.65820000       0.16560000
C       -2.65150000      -3.17080000      -1.23320000
C       -2.21960000      -4.12940000      -0.17020000
C       -3.43900000      -2.20830000       1.02240000
O       -3.39600000      -1.26920000       1.77420000
H        0.85750000       1.49360000      -0.91510000
H       -0.88260000       1.68920000      -0.58100000
H        0.32470000       1.92660000       0.70610000
H       -1.94900000      -0.29400000      -0.37590000
H       -3.69020000      -3.16040000      -1.54540000
H       -1.93500000      -2.90690000      -2.00190000
H       -1.20940000      -4.51770000      -0.21230000
H       -2.95480000      -4.79510000       0.26820000
H       -4.35990000      -2.82380000       0.89880000
