18
Properties=species:S:1:pos:R:3 gdb_102837=T pbc="F F F"
O        0.58910000       0.35960000      -0.72210000
C       -0.29800000       0.35600000       0.37930000
C       -1.61860000      -0.36030000       0.04510000
O       -2.44200000      -0.31370000       1.22160000
C       -2.62530000      -1.44690000       1.93340000
O       -3.27740000      -1.47950000       2.93110000
C       -2.35660000       0.29120000      -1.10520000
C       -3.83150000       0.25650000      -1.22080000
N       -3.13810000       1.51950000      -0.89610000
H        0.35990000       1.09960000      -1.29210000
H        0.20110000      -0.18290000       1.19170000
H       -0.52050000       1.36870000       0.74150000
H       -1.39560000      -1.40450000      -0.21450000
H       -2.11140000      -2.31890000       1.48580000
H       -1.77000000       0.29060000      -2.02130000
H       -4.29210000       0.22380000      -2.20370000
H       -4.39480000      -0.23160000      -0.43170000
H       -3.23160000       1.68350000       0.10510000
