15
Properties=species:S:1:pos:R:3 gdb_6684=T pbc="F F F"
O       -0.58000000       0.03240000       0.68210000
C       -0.32330000       1.33910000       0.51140000
O        0.60510000       1.90110000       1.02120000
C       -1.31480000       2.03790000      -0.43360000
N       -2.55050000       1.26640000      -0.58240000
H       -2.92720000       1.37870000      -1.51640000
H       -1.38850000      -0.14480000       0.15910000
C       -3.57580000       1.57110000       0.41400000
C       -4.70640000       0.55590000       0.36250000
O       -5.85760000       0.81800000       0.58360000
H       -1.46450000       3.06300000      -0.07260000
H       -0.82140000       2.10800000      -1.40880000
H       -3.11920000       1.48030000       1.41070000
H       -3.99700000       2.58380000       0.33970000
H       -4.37280000      -0.47670000       0.11090000
