18
Properties=species:S:1:pos:R:3 gdb_12980=T pbc="F F F"
C       -0.21780000       1.52940000       0.05370000
C        0.06560000       0.04970000       0.01170000
C       -0.76110000      -0.92970000       0.84420000
C        0.69700000      -0.76980000       1.13160000
C        1.63460000      -1.81500000       0.52610000
C        1.25900000      -1.88090000      -0.96890000
C        0.57410000      -0.53830000      -1.27060000
O        0.51220000      -0.00750000      -2.35310000
H        0.68040000       2.11050000      -0.17880000
H       -0.97830000       1.79420000      -0.68720000
H       -0.57720000       1.83540000       1.04070000
H       -1.46470000      -0.46700000       1.52800000
H       -1.12320000      -1.84720000       0.39110000
H        0.99130000      -0.28080000       2.05390000
H        2.67170000      -1.48100000       0.63690000
H        1.55160000      -2.78420000       1.02850000
H        2.11170000      -2.02010000      -1.63580000
H        0.55420000      -2.69240000      -1.18550000
