21
Properties=species:S:1:pos:R:3 gdb_73926=T pbc="F F F"
C       -0.15410000       1.47360000      -0.12060000
C       -0.05820000      -0.01970000      -0.09020000
C       -1.06050000      -0.90760000      -0.01570000
C       -2.53680000      -0.58890000       0.04820000
C       -3.05670000      -0.30170000      -1.34900000
O       -3.50970000       0.75540000      -1.70610000
C       -0.55240000      -2.33360000       0.03060000
C        0.94450000      -2.19900000      -0.33740000
C        1.28900000      -0.71270000      -0.08010000
H        0.33770000       1.91670000       0.75550000
H        0.36260000       1.87720000      -1.00050000
H       -1.18670000       1.82790000      -0.15250000
H       -3.08390000      -1.45070000       0.45190000
H       -2.75310000       0.27950000       0.67590000
H       -2.95670000      -1.15310000      -2.06050000
H       -0.69510000      -2.75450000       1.03760000
H       -1.09300000      -3.00150000      -0.65180000
H        1.58300000      -2.88780000       0.22110000
H        1.07930000      -2.42490000      -1.39980000
H        1.97650000      -0.30370000      -0.83050000
H        1.78180000      -0.56540000       0.89260000
