22
Properties=species:S:1:pos:R:3 gdb_70615=T pbc="F F F"
C       -0.32900000       1.41790000       0.10430000
C       -0.11030000      -0.07300000       0.02000000
C       -0.44510000      -0.95240000       1.17720000
N        0.96120000      -0.64950000       0.86430000
C        1.62600000      -1.70230000       0.07320000
C        0.71350000      -2.05050000      -1.12630000
C       -0.09620000      -0.76890000      -1.32840000
C       -1.25880000      -0.71770000      -2.28300000
C        0.01890000       0.01540000      -2.61490000
H        0.44890000       1.96560000      -0.43710000
H       -1.30140000       1.70250000      -0.31430000
H       -0.30310000       1.74440000       1.14650000
H       -0.80450000      -0.50790000       2.10170000
H       -0.82660000      -1.95260000       0.98660000
H        2.57910000      -1.28980000      -0.27520000
H        1.85060000      -2.56650000       0.70620000
H        1.28480000      -2.33120000      -2.01520000
H        0.05540000      -2.89410000      -0.89180000
H       -1.49930000      -1.61680000      -2.84140000
H       -2.12460000      -0.12450000      -2.00650000
H        0.00530000       1.09860000      -2.57520000
H        0.65490000      -0.39070000      -3.39490000
