21
Properties=species:S:1:pos:R:3 gdb_67124=T pbc="F F F"
C       -0.18320000       1.61240000      -0.17770000
C       -0.05280000       0.12960000       0.01440000
C        0.48260000      -0.95700000      -0.90200000
C        1.59590000      -1.32860000       0.12190000
C        0.70860000      -0.60630000       1.12260000
C        0.06060000      -1.18000000       2.13930000
C       -1.44450000      -1.11900000       2.07170000
C       -1.75350000      -1.73380000       0.66080000
C       -1.00160000      -0.94370000      -0.42500000
H        0.79240000       2.11070000      -0.14650000
H       -0.64480000       1.83730000      -1.14530000
H       -0.80800000       2.06600000       0.60070000
H        0.67030000      -0.87290000      -1.96910000
H        1.82380000      -2.38110000       0.32060000
H        2.51430000      -0.80190000      -0.16320000
H        0.52240000      -1.98910000       2.70180000
H       -1.92750000      -1.68850000       2.86980000
H       -1.83830000      -0.09810000       2.10830000
H       -1.48280000      -2.79550000       0.66830000
H       -2.82920000      -1.68760000       0.45080000
H       -1.63220000      -0.66250000      -1.26840000
