17
Properties=species:S:1:pos:R:3 gdb_45494=T pbc="F F F"
O        0.02010000       0.01340000      -0.44800000
C        0.03840000       1.15500000      -0.08770000
O       -1.10000000       1.84010000       0.22870000
C       -0.80300000       3.18920000       0.66130000
C       -0.82180000       3.20640000       2.19310000
C        0.50500000       2.50230000       2.57850000
C        1.43330000       2.78310000       1.39240000
C        0.66810000       3.45360000       0.28750000
C        1.21250000       2.07290000       0.05340000
H       -1.52700000       3.85020000       0.18380000
H       -0.80930000       4.24730000       2.53560000
H       -1.71390000       2.72230000       2.59730000
H        0.92490000       2.90700000       3.50270000
H        0.35770000       1.42960000       2.73760000
H        2.46310000       3.05940000       1.58680000
H        0.98040000       4.33490000      -0.25660000
H        2.07450000       1.86430000      -0.56600000
