17
Properties=species:S:1:pos:R:3 gdb_27354=T pbc="F F F"
C       -0.01730000       1.50910000       0.08490000
C       -0.00050000       0.01570000      -0.03780000
C       -0.01610000      -0.68140000      -1.19220000
C        0.00310000      -2.14830000      -1.19800000
O       -0.01030000      -2.80430000      -2.22140000
N        0.03890000      -2.78410000       0.06920000
C        0.05250000      -2.07350000       1.14250000
C        0.09000000      -2.72650000       2.49780000
N        0.03440000      -0.69800000       1.14560000
H        0.87460000       1.87290000       0.60890000
H       -0.04620000       1.97110000      -0.90260000
H       -0.89340000       1.84970000       0.64970000
H       -0.04340000      -0.17220000      -2.14720000
H        0.10420000      -3.80700000       2.36560000
H        0.98150000      -2.42140000       3.05760000
H       -0.78780000      -2.44910000       3.09280000
H        0.04670000      -0.20420000       2.02400000
