23
Properties=species:S:1:pos:R:3 gdb_77940=T pbc="F F F"
C       -0.03240000       1.58720000      -0.21990000
C        0.02640000       0.06380000      -0.12080000
C        1.08770000      -0.80450000      -0.87820000
C        2.14590000      -0.52120000       0.25370000
C        2.96700000       0.75720000       0.41450000
C        0.78270000      -0.76270000       0.98660000
C        0.61510000      -1.95990000       0.02830000
C       -0.44770000      -2.98780000      -0.12510000
C        1.00930000      -3.38980000       0.12740000
H        0.91050000       2.05730000      -0.49570000
H       -0.76300000       1.86860000      -0.98650000
H       -0.37100000       2.03330000       0.72260000
H       -0.98910000      -0.32360000      -0.25810000
H        1.26480000      -0.84680000      -1.95580000
H        2.82380000      -1.37470000       0.36360000
H        2.38910000       1.62800000       0.72090000
H        3.73160000       0.59790000       1.18280000
H        3.49440000       1.00940000      -0.51300000
H        0.59660000      -0.75360000       2.06350000
H       -1.15690000      -3.13750000       0.68360000
H       -0.85740000      -3.17950000      -1.11240000
H        1.55400000      -3.84470000      -0.69460000
H        1.25440000      -3.80290000       1.10140000
