20
Properties=species:S:1:pos:R:3 gdb_16764=T pbc="F F F"
C        0.09460000       1.51910000      -0.09860000
C        0.09400000      -0.01090000      -0.04370000
C        0.72440000      -0.56780000       1.22500000
C        0.75350000      -2.11030000       1.33380000
C        2.06000000      -2.38560000       2.07620000
C        3.34790000      -2.27870000       1.28010000
C        2.82260000      -1.09130000       2.03900000
O        2.10070000      -0.15210000       1.28740000
H        1.11560000       1.90400000      -0.03520000
H       -0.35330000       1.88130000      -1.02900000
H       -0.47630000       1.94430000       0.73450000
H       -0.93350000      -0.39120000      -0.10870000
H        0.63870000      -0.41900000      -0.90430000
H        0.19880000      -0.15560000       2.10340000
H       -0.11430000      -2.48750000       1.88200000
H        0.74170000      -2.57200000       0.33940000
H        2.04500000      -3.00960000       2.96150000
H        4.22270000      -2.78990000       1.66930000
H        3.28110000      -2.23940000       0.19760000
H        3.35680000      -0.68150000       2.89090000
