19
Properties=species:S:1:pos:R:3 gdb_100203=T pbc="F F F"
O        0.06310000       1.28340000       0.37250000
C        0.02370000      -0.11930000       0.14730000
C       -1.42770000      -0.58060000      -0.04480000
O       -2.23220000      -0.06260000       1.01350000
C       -2.02800000       0.04120000      -1.31280000
O       -1.47430000       0.86570000      -2.00250000
C       -1.55410000      -2.08860000      -0.08700000
C       -1.64350000      -2.88080000       1.19380000
C       -2.84720000      -2.76820000       0.29430000
H       -0.15750000       1.68730000      -0.47800000
H        0.63410000      -0.41060000      -0.71710000
H        0.43460000      -0.59730000       1.04090000
H       -1.83050000       0.79480000       1.22510000
H       -3.06800000      -0.28470000      -1.52400000
H       -0.99030000      -2.53990000      -0.89950000
H       -1.11430000      -3.82560000       1.24250000
H       -1.66940000      -2.31830000       2.11900000
H       -3.65790000      -2.13780000       0.63930000
H       -3.15320000      -3.63610000      -0.27860000
