17
Properties=species:S:1:pos:R:3 gdb_131850=T pbc="F F F"
O       -0.04600000       1.41370000      -0.22090000
C        0.00470000       0.01440000       0.03580000
C       -1.43080000      -0.48300000       0.06370000
N       -2.06320000      -0.18670000      -1.21500000
C       -3.38460000      -0.55200000      -1.37240000
C       -4.23950000      -1.35330000      -0.63900000
N       -5.43320000      -1.43280000      -1.29650000
N       -5.38510000      -0.73410000      -2.38440000
N       -4.13370000      -0.19280000      -2.44460000
H        0.84680000       1.72930000      -0.38540000
H        0.56000000      -0.51250000      -0.75320000
H        0.48410000      -0.20120000       1.00150000
H       -1.43590000      -1.56630000       0.22520000
H       -1.96360000      -0.01590000       0.90710000
H       -1.84570000       0.75900000      -1.50530000
H       -4.06990000      -1.85930000       0.29600000
H       -3.87280000       0.36970000      -3.23770000
