15
Properties=species:S:1:pos:R:3 gdb_3388=T pbc="F F F"
C        0.14340000       0.94880000       0.36490000
O       -0.24300000       0.02680000      -0.64010000
C       -1.41250000      -0.65110000      -0.33580000
C       -1.54570000      -2.10050000      -0.70460000
C       -0.22890000      -2.80500000      -0.38570000
O       -0.22740000      -2.29660000       0.97690000
C       -1.49050000      -1.67400000       0.76230000
H        1.06770000       1.42090000       0.02400000
H       -0.61870000       1.72820000       0.51420000
H        0.32590000       0.43920000       1.31900000
H       -2.33210000      -0.07350000      -0.46290000
H       -2.34630000      -2.49550000      -1.31530000
H       -0.31010000      -3.89680000      -0.38090000
H        0.65360000      -2.48660000      -0.94810000
H       -2.21140000      -1.69260000       1.57280000
