20
Properties=species:S:1:pos:R:3 gdb_77814=T pbc="F F F"
C       -0.06580000       1.55580000      -0.03870000
C        0.06720000       0.05030000       0.05190000
C        1.36860000      -0.70690000      -0.19620000
C        2.62230000       0.07790000      -0.08330000
N        3.51130000       0.19840000      -0.97280000
O        2.68360000       0.66860000       1.15720000
C        1.68700000       0.12200000       2.03610000
C        0.72760000      -0.69600000       1.18020000
C        0.07470000      -1.89970000       1.81490000
H        0.81070000       2.07730000       0.35200000
H       -0.19750000       1.86560000      -1.08040000
H       -0.94170000       1.89880000       0.52310000
H       -0.78950000      -0.48110000      -0.35750000
H        1.37180000      -1.56570000      -0.85410000
H        4.29060000       0.75760000      -0.62140000
H        2.18310000      -0.51590000       2.77850000
H        1.20880000       0.95590000       2.56140000
H       -0.59490000      -1.60350000       2.63110000
H       -0.52400000      -2.45170000       1.08440000
H        0.82030000      -2.58840000       2.22810000
