21
Properties=species:S:1:pos:R:3 gdb_74043=T pbc="F F F"
C       -0.02130000       1.48690000      -0.05750000
C       -0.01710000      -0.00760000      -0.00440000
C       -1.05630000      -0.83560000       0.10000000
C       -2.54980000      -0.77750000      -0.02370000
C       -2.86750000      -2.24150000      -0.48270000
O       -1.62850000      -2.87800000      -0.79810000
C       -0.64880000      -2.28260000       0.05110000
C        0.78070000      -2.23780000      -0.50030000
C        1.27260000      -0.81540000      -0.10460000
H        0.50570000       1.91800000       0.80380000
H        0.49890000       1.85180000      -0.95250000
H       -1.03760000       1.89070000      -0.06150000
H       -3.05870000      -0.54700000       0.91900000
H       -2.87480000      -0.03440000      -0.75820000
H       -3.38000000      -2.78590000       0.32520000
H       -3.49870000      -2.28500000      -1.37420000
H       -0.68770000      -2.76450000       1.04590000
H        1.42540000      -3.03860000      -0.12990000
H        0.72180000      -2.32170000      -1.58990000
H        1.96600000      -0.39020000      -0.84060000
H        1.81620000      -0.82980000       0.85120000
