21
Properties=species:S:1:pos:R:3 gdb_107706=T pbc="F F F"
C       -0.11690000       1.55200000      -0.10430000
C       -0.11000000       0.01910000      -0.06770000
C       -1.48530000      -0.55940000       0.06240000
O       -2.47180000      -0.26440000      -0.98150000
C       -3.19260000      -1.11490000      -0.03440000
C       -4.61990000      -1.45830000      -0.31380000
C       -1.96070000      -2.03620000       0.26000000
C       -2.10750000      -1.85680000       1.78590000
C       -2.52710000      -0.47930000       1.23170000
H        0.89240000       1.94450000      -0.25810000
H       -0.75480000       1.91190000      -0.91590000
H       -0.50160000       1.96680000       0.83300000
H        0.34370000      -0.37700000      -0.98470000
H        0.50040000      -0.34490000       0.76830000
H       -4.70730000      -1.99330000      -1.26450000
H       -5.02190000      -2.09530000       0.48040000
H       -5.22890000      -0.55080000      -0.37170000
H       -1.64400000      -2.90440000      -0.31990000
H       -2.88800000      -2.44630000       2.27520000
H       -1.18630000      -1.88900000       2.37430000
H       -2.85580000       0.41920000       1.75580000
