18
Properties=species:S:1:pos:R:3 gdb_26663=T pbc="F F F"
C        0.15830000       1.48010000      -0.01580000
C       -0.05280000       0.01020000      -0.03700000
C       -1.14760000      -0.79500000       0.02780000
C       -2.58930000      -0.41700000       0.15230000
C       -0.64180000      -2.14590000      -0.03110000
O       -1.35190000      -3.32030000       0.09490000
C        0.71150000      -2.06060000      -0.13110000
N        1.70980000      -3.01660000      -0.28880000
O        1.09120000      -0.75980000      -0.13790000
H        0.80160000       1.78570000       0.81840000
H        0.63060000       1.83960000      -0.93840000
H       -0.79920000       1.99480000       0.09260000
H       -3.16260000      -0.69050000      -0.74290000
H       -3.05900000      -0.93080000       0.99870000
H       -2.71360000       0.65860000       0.30130000
H       -1.92580000      -3.42250000      -0.67200000
H        1.32430000      -3.94230000      -0.14420000
H        2.49060000      -2.87200000       0.34300000
