22
Properties=species:S:1:pos:R:3 gdb_58098=T pbc="F F F"
C       -0.06850000       1.59950000       0.30330000
N       -0.04940000       0.13910000       0.17210000
H       -0.39800000      -0.00050000      -1.70290000
C        0.97800000      -0.43060000       1.04060000
C       -1.40170000      -0.48060000       0.25750000
C       -1.29460000      -2.02030000       0.27260000
C       -2.25570000      -0.01540000       1.44750000
C       -2.13000000      -0.14960000      -1.07510000
O       -1.29310000       0.02080000      -2.11020000
O       -3.32540000      -0.11030000      -1.18980000
H        0.90250000       1.99700000      -0.00750000
H       -0.83280000       2.03070000      -0.34820000
H       -0.25950000       1.94000000       1.33260000
H        0.76060000      -0.30270000       2.11440000
H        1.11860000      -1.49300000       0.83940000
H        1.92610000       0.07490000       0.83410000
H       -0.92110000      -2.38670000       1.23230000
H       -2.28900000      -2.44410000       0.11510000
H       -0.63840000      -2.38270000      -0.52410000
H       -2.43190000       1.06220000       1.43000000
H       -3.23100000      -0.50260000       1.40780000
H       -1.77210000      -0.27520000       2.39440000
