19
Properties=species:S:1:pos:R:3 gdb_52896=T pbc="F F F"
C        0.04220000       1.50150000       0.01690000
C        0.01600000       0.04640000       0.01210000
C        0.00910000      -1.15790000       0.00150000
C        0.01660000      -2.59190000      -0.02650000
C       -0.44230000      -3.37590000       1.21880000
C       -1.31930000      -3.37580000       0.02130000
C       -2.63340000      -2.63280000      -0.01140000
C        1.09040000      -3.25860000      -0.82140000
O        1.94320000      -2.70280000      -1.46120000
H        1.03060000       1.87390000      -0.27350000
H       -0.68850000       1.91860000      -0.68490000
H       -0.18410000       1.90270000       1.01110000
H        0.11490000      -4.27290000       1.46940000
H       -0.72330000      -2.76170000       2.06630000
H       -1.30070000      -4.28850000      -0.57000000
H       -2.57200000      -1.69930000       0.55250000
H       -2.92020000      -2.38570000      -1.03840000
H       -3.42790000      -3.24850000       0.42350000
H        1.03340000      -4.37280000      -0.77330000
