16
Properties=species:S:1:pos:R:3 gdb_106954=T pbc="F F F"
O        0.03270000       1.36330000      -0.39730000
C        0.04460000       0.05180000       0.14200000
C       -1.34700000      -0.52200000       0.20350000
C       -2.38570000       0.10080000       1.12450000
O       -3.37880000      -0.91290000       1.35470000
C       -2.92630000      -2.14820000       0.96640000
O       -3.48040000      -3.16180000       1.27220000
C       -1.69640000      -1.96620000       0.12270000
N       -1.87400000      -1.07360000      -1.04430000
H       -0.25450000       1.28710000      -1.31430000
H        0.68780000      -0.62440000      -0.43750000
H        0.46360000       0.14010000       1.14980000
H       -1.94330000       0.38840000       2.08490000
H       -2.87860000       0.97490000       0.69020000
H       -1.00500000      -2.79230000       0.01460000
H       -2.85840000      -0.84360000      -1.17400000
