15
Properties=species:S:1:pos:R:3 gdb_64541=T pbc="F F F"
O       -0.05000000       1.46480000      -0.07190000
C       -0.10280000       0.09470000       0.02000000
C        1.00100000      -0.55820000      -0.75430000
O        1.81160000       0.09730000      -1.36510000
C       -0.45000000      -0.72870000       1.25320000
C       -1.66240000      -0.16940000       2.06070000
O       -2.13920000       1.03390000       1.46030000
C       -2.51680000      -0.21450000       0.88070000
C       -1.35130000      -0.77720000       0.01020000
H        0.72230000       1.64140000      -0.63580000
H        1.03350000      -1.66550000      -0.73620000
H        0.20230000      -1.50100000       1.64460000
H       -1.85820000      -0.33650000       3.11240000
H       -3.57030000      -0.42630000       0.74850000
H       -1.48900000      -1.59200000      -0.69150000
