17
Properties=species:S:1:pos:R:3 gdb_27672=T pbc="F F F"
C        0.02480000       1.54210000       0.06770000
C        0.00480000       0.04600000       0.04550000
C       -0.01830000      -0.74820000      -1.09180000
N       -0.00770000      -2.07770000      -0.66730000
C        0.01690000      -2.12560000       0.69480000
N       -0.04880000      -3.35780000       1.35790000
C        0.03270000      -0.82740000       1.16790000
C       -0.03710000      -0.40640000      -2.45370000
C       -0.05980000      -0.12410000      -3.62770000
H        0.92730000       1.92700000       0.55720000
H       -0.00420000       1.94500000      -0.94790000
H       -0.83400000       1.94650000       0.61630000
H       -0.14310000      -2.86870000      -1.27270000
H        0.70470000      -3.98740000       1.10110000
H       -0.03510000      -3.23200000       2.36160000
H        0.07970000      -0.53800000       2.20730000
H       -0.07420000       0.13370000      -4.65690000
