17
Properties=species:S:1:pos:R:3 gdb_49072=T pbc="F F F"
O       -0.98820000       1.43010000       0.42080000
C        0.07630000       0.94230000       0.13930000
C        1.33890000       1.74270000      -0.05130000
C        1.45260000       3.09650000       0.68490000
O        1.71120000       3.80650000      -0.54740000
C        1.49370000       2.62460000      -1.33950000
C        2.75580000       2.08650000      -2.00040000
C        3.48580000       1.41550000      -0.82690000
O        2.44960000       0.88150000       0.00570000
H        0.21110000      -0.14890000      -0.02210000
H        0.51320000       3.41250000       1.14960000
H        2.28190000       3.16870000       1.39630000
H        0.63190000       2.72840000      -2.00480000
H        2.48380000       1.34870000      -2.76240000
H        3.33770000       2.88310000      -2.46950000
H        4.13440000       0.58650000      -1.11760000
H        4.08310000       2.14970000      -0.27000000
