18
Properties=species:S:1:pos:R:3 gdb_82036=T pbc="F F F"
C       -0.20720000       1.53500000       0.00220000
C        0.06150000       0.04300000      -0.01360000
N        0.98330000      -0.50860000      -1.06980000
C        2.32370000       0.03500000      -0.79760000
C        1.85500000      -1.08410000       0.03840000
C        0.94090000      -0.57200000       1.15520000
O        1.50340000       0.30080000       2.08130000
C        0.19540000      -1.67490000       1.86300000
O        0.10180000      -1.70940000       3.06720000
H        0.68270000       2.11910000       0.24280000
H       -0.58740000       1.85140000      -0.97460000
H       -0.96400000       1.76950000       0.75690000
H       -0.88430000      -0.49840000      -0.11560000
H        3.03440000      -0.20830000      -1.58100000
H        2.44410000       1.02270000      -0.36520000
H        2.27820000      -2.08170000      -0.02160000
H        1.22150000      -0.02030000       2.95400000
H       -0.27270000      -2.44360000       1.21610000
