19
Properties=species:S:1:pos:R:3 gdb_113873=T pbc="F F F"
C       -0.15950000       1.35850000      -0.51600000
C       -0.05650000      -0.03710000      -0.11450000
C        0.03660000      -1.19180000       0.21200000
C        0.11750000      -2.59420000       0.61030000
C       -1.23920000      -3.28200000       0.56800000
O       -1.68080000      -3.80600000      -0.68420000
C       -1.44280000      -4.72920000       0.39520000
C       -0.35590000      -5.74630000       0.14860000
O       -0.77970000      -6.71300000      -0.79790000
H        0.64860000       1.63500000      -1.20230000
H       -1.10840000       1.55470000      -1.02730000
H       -0.10390000       2.02910000       0.34860000
H        0.82060000      -3.12730000      -0.03740000
H        0.51170000      -2.66830000       1.63350000
H       -2.01410000      -2.73940000       1.11190000
H       -2.35820000      -5.15910000       0.80640000
H        0.57230000      -5.25420000      -0.17200000
H       -0.14330000      -6.29460000       1.07300000
H       -1.03000000      -6.22940000      -1.59360000
