13
Properties=species:S:1:pos:R:3 gdb_23714=T pbc="F F F"
O        0.08420000       1.36770000       0.12990000
C        0.06560000       0.00570000       0.03890000
C        0.07900000      -0.67040000      -1.18140000
C        0.05870000      -2.06320000      -1.21240000
C        0.02520000      -2.76540000      -0.01830000
F        0.00560000      -4.10570000      -0.04320000
C        0.01140000      -2.10740000       1.20490000
C        0.03170000      -0.71850000       1.23260000
H        0.10680000       1.74250000      -0.75640000
H        0.10540000      -0.11160000      -2.11290000
H        0.06880000      -2.60340000      -2.15170000
H       -0.01500000      -2.68610000       2.12080000
H        0.02160000      -0.17850000       2.17210000
