18
Properties=species:S:1:pos:R:3 gdb_38082=T pbc="F F F"
C        0.19830000       1.47880000       0.32570000
C        1.70400000       1.39760000      -0.09930000
C        1.92410000       1.93140000      -1.49300000
C        1.17050000       1.61340000      -2.55470000
C        0.02130000       0.69140000      -2.56270000
N       -0.50980000       0.00370000      -1.62700000
C        2.29480000      -1.14800000       0.11030000
C        1.50160000      -0.11340000      -0.11120000
C       -0.00620000       0.04070000      -0.25300000
H        0.09690000       1.47510000       1.41240000
H       -0.40310000       2.27690000      -0.11240000
H        2.44270000       1.79460000       0.59890000
H        2.75250000       2.62160000      -1.62980000
H        1.40680000       2.05880000      -3.51730000
H       -0.45450000       0.58330000      -3.54210000
H        1.90590000      -2.16120000       0.13690000
H        3.36060000      -1.02540000       0.27840000
H       -0.61970000      -0.63880000       0.34210000
