18
Properties=species:S:1:pos:R:3 gdb_46623=T pbc="F F F"
O        0.06360000      -0.03330000       0.00180000
C        0.00980000       1.17770000       0.00930000
C       -1.24900000       2.06550000       0.03140000
C       -0.74420000       3.53430000       0.03260000
C        0.75800000       3.39610000       0.00970000
C        1.85080000       4.15940000      -0.00380000
C        3.09030000       3.27630000      -0.02580000
C        2.51700000       1.81980000      -0.02420000
N        1.07260000       2.03560000      -0.00060000
H       -1.86500000       1.82570000      -0.83920000
H       -1.84130000       1.81610000       0.91560000
H       -1.10040000       4.09380000      -0.83690000
H       -1.07440000       4.08320000       0.91900000
H        1.87760000       5.23890000       0.00030000
H        3.71100000       3.45720000      -0.91130000
H        3.73630000       3.44920000       0.84300000
H        2.80090000       1.25070000      -0.91420000
H        2.82860000       1.24180000       0.85060000
