16
Properties=species:S:1:pos:R:3 gdb_12057=T pbc="F F F"
O       -0.05430000       1.46250000      -0.05190000
C       -0.05840000       0.07290000       0.01610000
C        0.22420000      -0.59590000       1.42690000
C       -1.12250000      -1.31220000       1.33650000
C       -2.21730000      -0.29630000       1.21690000
C       -1.42210000      -0.64150000      -0.01070000
C        0.87860000      -0.50210000      -1.01740000
O        1.51660000       0.19890000      -1.76620000
H        0.56960000       1.69320000      -0.75930000
H        1.09470000      -1.25730000       1.42530000
H        0.33210000       0.13570000       2.23190000
H       -1.30610000      -2.33780000       1.62830000
H       -3.22820000      -0.69060000       1.21890000
H       -2.11420000       0.68270000       1.67620000
H       -1.89350000      -1.04610000      -0.89890000
H        0.95030000      -1.60830000      -1.04730000
