15
Properties=species:S:1:pos:R:3 gdb_62345=T pbc="F F F"
C        0.03450000       1.51750000       0.06890000
C        0.07710000      -0.00180000       0.04780000
C       -1.11260000      -0.61230000      -0.50430000
N       -2.06110000      -1.09250000      -0.96020000
C        1.33820000      -0.82470000      -0.19630000
N        2.52580000      -0.19480000       0.36370000
C        1.96530000      -0.13130000       1.65460000
O        2.36170000       0.33780000       2.67930000
C        0.70550000      -0.85910000       1.17560000
H        0.96700000       1.93300000       0.45470000
H       -0.13040000       1.90760000      -0.93950000
H       -0.78070000       1.86590000       0.70820000
H        1.40600000      -1.61000000      -0.93660000
H        3.05160000       0.55550000      -0.06930000
H        0.15500000      -1.64440000       1.67230000
