17
Properties=species:S:1:pos:R:3 gdb_31357=T pbc="F F F"
C        0.15060000       1.44270000      -0.13930000
N       -0.21570000       0.07030000       0.17610000
C        0.50540000      -0.68810000       1.08490000
C        0.61150000      -2.04880000       1.02680000
C        1.30930000      -2.82600000       2.03870000
O        1.41260000      -4.05050000       2.00860000
C        1.90190000      -2.00610000       3.10890000
C        1.77980000      -0.66530000       3.11410000
N        1.09940000      -0.00080000       2.11650000
H        1.21350000       1.56830000      -0.39310000
H       -0.44760000       1.77090000      -0.99120000
H       -0.09230000       2.12070000       0.68820000
H       -0.49790000      -0.47330000      -0.62460000
H        0.16140000      -2.58550000       0.19920000
H        2.44730000      -2.51240000       3.89530000
H        2.20100000      -0.02520000       3.88020000
H        0.96630000       0.99210000       2.19220000
