17
Properties=species:S:1:pos:R:3 gdb_6195=T pbc="F F F"
C        0.07010000       1.47020000       0.09850000
C       -0.07460000      -0.05730000      -0.00650000
C       -1.54440000      -0.46910000      -0.10870000
C        0.77680000      -0.62960000      -1.16790000
O        2.04390000      -0.95650000      -0.59040000
C        1.90780000      -1.06390000       0.76850000
O        2.79690000      -1.39840000       1.49940000
N        0.60660000      -0.73890000       1.09480000
H        1.12510000       1.76010000       0.11120000
H       -0.41430000       1.96670000      -0.74870000
H       -0.39840000       1.84170000       1.01610000
H       -1.99620000      -0.06300000      -1.01980000
H       -1.64040000      -1.55780000      -0.12480000
H       -2.11740000      -0.08640000       0.74220000
H        0.32620000      -1.54020000      -1.57980000
H        0.93520000       0.09040000      -1.97380000
H        0.43590000      -0.47890000       2.05410000
