18
Properties=species:S:1:pos:R:3 gdb_40610=T pbc="F F F"
C       -0.08030000       1.31460000      -0.35170000
C        1.25600000       0.88910000       0.14110000
N        0.16150000      -0.07430000      -0.00660000
C       -0.37720000      -0.61370000       1.21670000
C       -1.53310000      -0.15900000       2.08480000
C       -2.84250000       0.17460000       1.30490000
O       -2.61810000       0.05720000      -0.10650000
C       -2.84660000      -1.13110000       0.65900000
C       -1.54150000      -1.54690000       1.39240000
H       -0.68790000       1.90730000       0.32800000
H       -0.25590000       1.51170000      -1.40500000
H        2.09290000       0.75590000      -0.53920000
H        1.53120000       1.20020000       1.14830000
H        0.43590000      -0.96060000       1.85520000
H       -1.43030000       0.05020000       3.14290000
H       -3.64360000       0.82300000       1.63830000
H       -3.65190000      -1.78580000       0.34920000
H       -1.42990000      -2.51800000       1.85930000
