25
Properties=species:S:1:pos:R:3 gdb_64465=T pbc="F F F"
C       -0.31520000       1.56410000      -0.01790000
C       -0.04920000       0.03980000      -0.00130000
C       -1.41220000      -0.68550000       0.03010000
C        0.67250000      -0.40580000      -1.29770000
C        2.04960000       0.18990000      -1.61640000
C        3.19140000      -0.29650000      -0.71820000
C        3.15130000       0.22940000       0.72300000
C        1.99310000      -0.22540000       1.57870000
C        0.69600000      -0.31130000       1.27810000
H        0.61330000       2.14070000      -0.00940000
H       -0.88590000       1.84880000      -0.91000000
H       -0.89420000       1.86380000       0.86150000
H       -2.00840000      -0.44010000      -0.85510000
H       -1.27970000      -1.77250000       0.05710000
H       -1.99130000      -0.39680000       0.91400000
H        0.76370000      -1.50010000      -1.27840000
H       -0.00060000      -0.17250000      -2.13340000
H        2.29090000      -0.07380000      -2.65360000
H        2.00730000       1.28670000      -1.59250000
H        3.19650000      -1.39440000      -0.70080000
H        4.14540000       0.01100000      -1.16400000
H        4.08130000      -0.06260000       1.22410000
H        3.17210000       1.33030000       0.69710000
H        2.26570000      -0.48870000       2.59960000
H        0.04010000      -0.63350000       2.08660000
