16
Properties=species:S:1:pos:R:3 gdb_130169=T pbc="F F F"
N       -0.08230000       1.40370000       0.15460000
C        0.04560000       0.01870000       0.04360000
N       -1.03740000      -0.76210000       0.02230000
N       -0.55380000      -2.04430000      -0.00640000
C        0.78870000      -2.06840000      -0.02020000
C        1.22960000      -0.75900000       0.01530000
C        2.69010000      -0.77840000       0.01710000
C        3.11390000      -2.05820000      -0.01830000
C        1.93680000      -3.03210000      -0.04360000
H        0.57550000       1.91170000      -0.42140000
H       -1.02900000       1.70180000      -0.04500000
H       -1.21240000      -2.80250000      -0.01770000
H        3.33110000       0.09360000       0.04670000
H        4.14210000      -2.39400000      -0.02550000
H        1.94910000      -3.70780000       0.82150000
H        1.95080000      -3.66790000      -0.93840000
