19
Properties=species:S:1:pos:R:3 gdb_102144=T pbc="F F F"
C        0.87140000      -0.85220000      -1.27150000
C        0.13190000      -0.19780000      -0.09930000
C       -1.38930000      -0.48960000      -0.03520000
C       -2.15770000      -0.03660000      -1.29620000
C       -1.94960000       1.37480000      -1.60540000
N       -1.77660000       2.49460000      -1.83430000
C       -1.63960000      -1.98970000       0.16270000
N       -1.55100000      -2.42050000       1.45210000
O       -1.87450000      -2.74340000      -0.76400000
H        1.94590000      -0.66570000      -1.18840000
H        0.71330000      -1.93400000      -1.29790000
H        0.54540000      -0.44370000      -2.23280000
H        0.57820000      -0.52960000       0.84550000
H        0.26520000       0.88870000      -0.13850000
H       -1.79290000       0.05320000       0.82800000
H       -1.85670000      -0.65310000      -2.14710000
H       -3.22990000      -0.21120000      -1.16050000
H       -1.34850000      -1.80210000       2.21750000
H       -1.64300000      -3.40650000       1.63490000
