16
Properties=species:S:1:pos:R:3 gdb_56488=T pbc="F F F"
C        0.01590000       1.56980000       0.02280000
C        0.03190000       0.03090000       0.02460000
C        0.73070000      -0.48900000       1.19550000
C        1.28800000      -0.89560000       2.17900000
C       -1.43130000      -0.54750000      -0.02830000
C       -2.17600000      -0.06760000      -1.19300000
C       -2.77550000       0.33250000      -2.15280000
C       -1.41720000      -2.01930000      -0.00980000
N       -1.40750000      -3.17390000      -0.00220000
H        1.03980000       1.94960000       0.03940000
H       -0.48710000       1.94740000      -0.86990000
H       -0.50100000       1.95180000       0.90830000
H        0.54100000      -0.31990000      -0.88080000
H        1.79050000      -1.27300000       3.03540000
H       -1.94070000      -0.21650000       0.88660000
H       -3.31470000       0.67840000      -3.00050000
