19
Properties=species:S:1:pos:R:3 gdb_60092=T pbc="F F F"
C       -0.10170000       1.56060000       0.21690000
C       -0.11230000       0.08310000      -0.17690000
O        1.05080000      -0.59020000       0.28740000
C       -1.40300000      -0.61710000       0.28680000
C       -1.39280000      -2.10230000       0.00880000
C       -2.52850000      -2.78380000      -0.66010000
O       -1.32850000      -2.52170000      -1.36420000
C       -0.58980000      -2.98010000       0.92220000
O       -0.19540000      -2.65240000       2.01400000
H        0.82710000       2.02890000      -0.11850000
H       -0.94430000       2.09940000      -0.22990000
H       -0.16730000       1.67310000       1.30570000
H       -0.05720000       0.00080000      -1.26870000
H        0.95320000      -0.74640000       1.23460000
H       -1.52880000      -0.47900000       1.36790000
H       -2.26240000      -0.15050000      -0.20490000
H       -2.73770000      -3.83450000      -0.46040000
H       -3.39120000      -2.17930000      -0.93640000
H       -0.40750000      -3.99390000       0.50410000
