17
Properties=species:S:1:pos:R:3 gdb_68178=T pbc="F F F"
C        0.02980000       1.54480000       0.03550000
C        0.02030000       0.03960000      -0.00980000
C        0.62760000      -0.82170000      -1.17670000
C        0.62050000      -1.86380000      -0.01960000
N        0.90920000      -0.74420000       0.96520000
C       -0.89700000      -2.00260000       0.22440000
C       -1.29170000      -0.72110000       0.23010000
C       -1.62130000      -3.19920000       0.39350000
N       -2.19060000      -4.20100000       0.52130000
H        1.03050000       1.93900000      -0.16620000
H       -0.65210000       1.95990000      -0.71370000
H       -0.28470000       1.90200000       1.02110000
H        0.02240000      -1.01320000      -2.06780000
H        1.63660000      -0.49670000      -1.45150000
H        1.23680000      -2.76010000       0.00660000
H        1.87250000      -0.43820000       0.79450000
H       -2.27470000      -0.29720000       0.37380000
