21
Properties=species:S:1:pos:R:3 gdb_72230=T pbc="F F F"
C       -0.03010000       1.44370000       0.08690000
C        0.00400000      -0.06490000       0.00740000
C        1.01070000      -0.72600000      -0.94460000
C        0.33430000      -2.05740000      -1.36600000
C       -0.73940000      -2.27030000      -0.28930000
C       -0.08920000      -2.31640000       1.13680000
C       -0.38250000      -0.82590000       1.26030000
O       -0.48450000      -0.13570000       2.45610000
C       -1.29340000      -0.85650000       0.03310000
H        0.92420000       1.83920000       0.45320000
H       -0.21340000       1.87880000      -0.90220000
H       -0.80860000       1.79180000       0.76920000
H        1.20300000      -0.07890000      -1.80680000
H        1.97680000      -0.89410000      -0.45580000
H       -0.13760000      -1.95310000      -2.34960000
H        1.03880000      -2.89340000      -1.42660000
H       -1.45500000      -3.06400000      -0.50420000
H       -0.70620000      -2.89350000       1.83430000
H        0.94980000      -2.65840000       1.21690000
H       -1.15930000      -0.56600000       2.99320000
H       -2.27890000      -0.44950000      -0.15350000
