25
Properties=species:S:1:pos:R:3 gdb_101475=T pbc="F F F"
C       -0.07800000       1.58070000       0.08680000
C        0.03480000       0.05430000       0.00770000
C        0.74450000      -0.48070000      -1.25250000
C        2.21250000      -0.02780000      -1.31250000
C        0.63570000      -2.01240000      -1.33930000
C       -0.80890000      -2.56690000      -1.45310000
C       -0.67900000      -3.77210000      -2.41840000
O        0.70590000      -3.92290000      -2.70900000
C        1.30070000      -2.64570000      -2.57440000
H        0.89990000       2.06540000       0.16160000
H       -0.58250000       1.98560000      -0.79800000
H       -0.65820000       1.88200000       0.96470000
H        0.56140000      -0.32150000       0.89630000
H       -0.97450000      -0.37070000       0.05350000
H        0.22450000      -0.06560000      -2.13060000
H        2.70170000      -0.36520000      -2.23100000
H        2.30110000       1.06150000      -1.28140000
H        2.77970000      -0.43170000      -0.46490000
H        1.11110000      -2.44640000      -0.44970000
H       -1.21330000      -2.86190000      -0.48240000
H       -1.48270000      -1.81050000      -1.86910000
H       -1.03120000      -4.71440000      -1.98840000
H       -1.24540000      -3.59180000      -3.34520000
H        1.11630000      -2.02440000      -3.47040000
H        2.37900000      -2.79240000      -2.47620000
