16
Properties=species:S:1:pos:R:3 gdb_130130=T pbc="F F F"
N       -0.14190000       1.36020000      -0.21730000
C       -0.04650000      -0.01060000      -0.07430000
N       -1.08450000      -0.77230000       0.24680000
N       -0.52400000      -2.02030000       0.19420000
C        0.77290000      -1.94220000      -0.13450000
N        1.12130000      -0.67680000      -0.31440000
N        1.54900000      -3.10110000      -0.24440000
C        2.56240000      -3.09060000      -1.32340000
C        2.98110000      -2.94520000       0.08730000
H        0.72980000       1.83700000      -0.03950000
H       -0.91850000       1.76270000       0.28740000
H       -1.06610000      -2.84400000       0.39250000
H        2.67700000      -4.04010000      -1.83670000
H        2.59690000      -2.20170000      -1.94510000
H        3.29800000      -1.95920000       0.41150000
H        3.40780000      -3.78720000       0.62320000
