21
Properties=species:S:1:pos:R:3 gdb_107616=T pbc="F F F"
C       -0.21460000       1.49470000      -0.09540000
C       -0.07200000      -0.02930000      -0.06480000
C        0.82460000      -0.58830000      -1.20130000
C        1.43500000      -1.90260000      -0.66380000
C        1.47420000      -1.68910000       0.83520000
O        2.00530000      -0.41040000       1.22500000
C        0.56740000      -0.59320000       1.20230000
C       -0.07910000      -0.46690000       2.55770000
O       -0.03170000       0.86450000       3.04900000
H        0.76820000       1.96770000       0.00420000
H       -0.65150000       1.82400000      -1.04410000
H       -0.84310000       1.85510000       0.72200000
H       -1.07170000      -0.48250000      -0.13590000
H        0.26970000      -0.73140000      -2.13190000
H        1.62480000       0.12810000      -1.40530000
H        0.79190000      -2.76600000      -0.87590000
H        2.42050000      -2.11770000      -1.08830000
H        1.70630000      -2.50840000       1.51240000
H       -1.13990000      -0.73350000       2.49860000
H        0.40630000      -1.16410000       3.25700000
H        0.89680000       1.12460000       3.04060000
