18
Properties=species:S:1:pos:R:3 gdb_68959=T pbc="F F F"
C       -0.02780000       1.51870000      -0.07210000
C       -0.05040000       0.01610000       0.06750000
C       -1.34550000      -0.72990000      -0.28470000
C       -1.33790000      -1.94950000       0.60860000
C       -0.30580000      -1.94130000       1.45470000
C        0.58860000      -0.77240000       1.20900000
N        1.20620000      -0.68020000      -0.14900000
C        1.38080000      -0.16920000       2.30650000
O        1.25740000      -0.47610000       3.46800000
H        0.95170000       1.92370000       0.18920000
H       -0.23930000       1.80200000      -1.10980000
H       -0.78650000       1.98530000       0.56410000
H       -2.22110000      -0.09710000      -0.08910000
H       -1.38380000      -0.98260000      -1.35300000
H       -2.08870000      -2.72790000       0.53800000
H       -0.09080000      -2.67280000       2.22260000
H        1.06860000      -1.56980000      -0.62600000
H        2.11830000       0.59170000       1.97350000
