17
Properties=species:S:1:pos:R:3 gdb_79458=T pbc="F F F"
O       -0.05010000       1.41530000       0.03230000
C        0.08130000       0.00730000       0.01570000
C       -1.33030000      -0.59410000      -0.04260000
C       -1.33320000      -0.44710000      -1.58160000
O       -1.92330000      -1.75030000      -1.77680000
C       -1.23410000      -2.08310000      -0.52780000
C        0.22690000      -2.13070000      -1.04650000
O        0.39470000      -3.01870000      -2.11620000
C        0.24510000      -0.62090000      -1.39400000
H        0.80360000       1.79590000      -0.19760000
H        0.77410000      -0.33970000       0.79500000
H       -2.14580000      -0.28950000       0.60970000
H       -1.75850000       0.35540000      -2.17680000
H       -1.66060000      -2.93920000      -0.00790000
H        0.96080000      -2.39390000      -0.28010000
H       -0.40440000      -2.91540000      -2.65360000
H        0.98620000      -0.27150000      -2.11090000
