16
Properties=species:S:1:pos:R:3 gdb_42225=T pbc="F F F"
O        0.45730000       0.31980000      -1.05070000
C        0.26460000       1.35420000      -0.43920000
C        1.32730000       1.96680000       0.34480000
C        2.20320000       2.48150000       0.99110000
C       -1.01590000       2.12350000      -0.41340000
C       -1.87060000       2.37660000      -1.61510000
C       -1.91460000       1.20900000      -2.59740000
C       -2.40550000       0.35930000      -1.39950000
N       -2.39310000       1.55710000      -0.47200000
H        2.98730000       2.92170000       1.55820000
H       -0.99350000       2.94900000       0.29200000
H       -2.22220000       3.38640000      -1.80770000
H       -2.67260000       1.34670000      -3.37060000
H       -0.96930000       0.92010000      -3.05830000
H       -3.44070000       0.02620000      -1.49340000
H       -1.77390000      -0.46730000      -1.07990000
