21
Properties=species:S:1:pos:R:3 gdb_70743=T pbc="F F F"
C       -0.04910000       1.50270000       0.01480000
C       -0.01490000      -0.01150000      -0.01730000
C       -0.81590000      -0.80300000       1.00620000
C        0.67730000      -0.73530000       1.11100000
O        1.40020000      -1.89960000       0.84120000
C        2.58120000      -1.64900000       0.08490000
C        2.31540000      -1.61630000      -1.42010000
O        1.50250000      -0.54600000      -1.86070000
C        0.15810000      -0.62300000      -1.39910000
H        0.82790000       1.91380000      -0.49690000
H       -0.94430000       1.89140000      -0.48500000
H       -0.05160000       1.88300000       1.04120000
H       -1.40950000      -0.26310000       1.73640000
H       -1.23720000      -1.75170000       0.69150000
H        1.10950000      -0.12250000       1.90440000
H        3.05320000      -0.71010000       0.40750000
H        3.27260000      -2.47240000       0.30090000
H        3.27080000      -1.51220000      -1.94790000
H        1.86580000      -2.57900000      -1.71510000
H       -0.17990000      -1.66800000      -1.40750000
H       -0.44420000      -0.06820000      -2.12740000
