18
Properties=species:S:1:pos:R:3 gdb_99066=T pbc="F F F"
C        0.01750000       1.38690000      -0.14860000
N        0.12270000      -0.04450000       0.03500000
C        0.68010000      -0.59850000       1.14110000
O        1.13290000       0.00610000       2.09010000
O        0.65220000      -1.95660000       1.02830000
C        1.22360000      -2.68200000       2.14160000
C        0.14270000      -2.96890000       3.18700000
C        1.82450000      -3.89980000       1.60700000
C        2.31820000      -4.91860000       1.20610000
H        0.59110000       1.72380000      -1.01960000
H       -1.02570000       1.69780000      -0.27510000
H        0.42250000       1.86320000       0.74480000
H       -0.19150000      -0.67390000      -0.68430000
H        1.99500000      -2.04640000       2.58690000
H        0.56660000      -3.54480000       4.01400000
H       -0.24300000      -2.02390000       3.57620000
H       -0.67370000      -3.54330000       2.74250000
H        2.76310000      -5.81320000       0.84590000
