19
Properties=species:S:1:pos:R:3 gdb_76466=T pbc="F F F"
C       -0.13210000       1.56430000      -0.14170000
C       -0.02690000       0.05480000      -0.07270000
C        1.32820000      -0.63430000      -0.21270000
O        2.44650000       0.18940000      -0.39020000
C        0.62110000      -0.62570000       1.09320000
C        1.10650000      -0.17220000       2.47660000
C       -0.23890000      -0.64450000       3.08400000
C        0.28440000      -1.72770000       2.10770000
O        1.64240000      -1.54430000       2.68940000
H        0.77550000       2.03400000       0.24270000
H       -0.26340000       1.89670000      -1.17660000
H       -0.98630000       1.92940000       0.43870000
H       -0.85100000      -0.48160000      -0.53910000
H        1.35200000      -1.56400000      -0.78300000
H        3.15340000      -0.16590000       0.15930000
H        1.74220000       0.66740000       2.75650000
H       -0.19510000      -0.91640000       4.13950000
H       -1.14580000      -0.10070000       2.80950000
H       -0.06120000      -2.74860000       1.94410000
