20
Properties=species:S:1:pos:R:3 gdb_11302=T pbc="F F F"
C       -0.13900000       1.53380000      -0.02640000
C        0.04590000       0.01740000      -0.01340000
C        0.85350000      -0.54780000      -1.19430000
C        1.24750000      -1.95190000      -0.71920000
C        1.63160000      -1.75150000       0.77220000
C        0.79620000      -0.51540000       1.23620000
C        1.32910000      -2.98000000       1.59350000
O        2.13690000      -3.65420000       2.17780000
H        0.83050000       2.04530000      -0.00610000
H       -0.67150000       1.86240000      -0.92510000
H       -0.71270000       1.87460000       0.84210000
H       -0.94710000      -0.45200000      -0.03960000
H        0.29000000      -0.55500000      -2.13250000
H        1.75320000       0.06080000      -1.35660000
H        0.37980000      -2.62130000      -0.79400000
H        2.05740000      -2.40770000      -1.29390000
H        2.70230000      -1.55220000       0.86280000
H        1.46790000       0.24830000       1.64100000
H        0.09820000      -0.77140000       2.04120000
H        0.24070000      -3.23750000       1.62010000
