25
Properties=species:S:1:pos:R:3 gdb_92326=T pbc="F F F"
C       -0.40210000       2.23500000      -0.01540000
C        0.35920000       0.94110000      -0.27800000
C        1.78590000       1.06230000      -0.88260000
C        2.32080000       0.01810000       0.13630000
C        3.35290000       0.54330000       1.14770000
C        2.51970000       1.35730000       2.15580000
C        1.22430000       0.53370000       2.29680000
C        0.09310000       1.20420000       3.07920000
C        0.92720000       0.02160000       0.86640000
H        0.18390000       2.94420000       0.57740000
H       -0.63710000       2.72630000      -0.96730000
H       -1.34830000       2.05920000       0.50650000
H       -0.26180000       0.31230000      -0.92580000
H        1.88210000       0.79750000      -1.93890000
H        2.22800000       2.05580000      -0.74520000
H        2.62090000      -0.92730000      -0.32050000
H        3.83490000      -0.29560000       1.66480000
H        4.14700000       1.12730000       0.67020000
H        3.03080000       1.50470000       3.11260000
H        2.29580000       2.35550000       1.75770000
H        1.50120000      -0.37250000       2.85750000
H       -0.17670000       2.18010000       2.66950000
H       -0.80950000       0.58310000       3.08410000
H        0.39010000       1.35790000       4.12260000
H        0.40220000      -0.93620000       0.91710000
