23
Properties=species:S:1:pos:R:3 gdb_107263=T pbc="F F F"
C        0.08180000       1.48350000       0.31440000
C       -0.07630000       0.03930000      -0.18100000
C       -1.49490000      -0.47610000      -0.08180000
C       -2.01720000      -1.01730000       1.23150000
C       -1.87410000      -1.94260000       0.04510000
C       -3.00170000      -2.03480000      -1.00340000
C       -3.84160000      -0.74800000      -0.77850000
C       -2.51270000      -0.05050000      -1.17190000
C       -2.34270000      -1.23990000      -2.18440000
H        1.12000000       1.82020000       0.22890000
H       -0.54010000       2.17410000      -0.26490000
H       -0.21690000       1.57180000       1.36410000
H        0.26590000      -0.02700000      -1.22280000
H        0.58650000      -0.61580000       0.39840000
H       -1.26360000      -1.14080000       2.00480000
H       -2.98780000      -0.74800000       1.63010000
H       -1.12470000      -2.72700000       0.06890000
H       -3.47410000      -3.00690000      -1.14960000
H       -4.59980000      -0.62760000      -1.55520000
H       -4.29400000      -0.55230000       0.19400000
H       -2.49010000       0.99080000      -1.49630000
H       -1.32620000      -1.51910000      -2.47620000
H       -2.98340000      -1.15450000      -3.06690000
