19
Properties=species:S:1:pos:R:3 gdb_113494=T pbc="F F F"
O        0.01330000       1.27280000      -0.55380000
C        0.05720000       0.11040000       0.25690000
C       -1.30620000      -0.52630000       0.36170000
O       -1.76920000      -1.15880000      -0.84680000
C       -1.54310000      -1.97410000       0.31430000
C       -0.44740000      -3.04500000       0.20740000
C       -1.19050000      -4.32040000       0.52030000
C       -2.44530000      -4.09760000       0.90840000
C       -2.78670000      -2.62910000       0.93170000
H       -0.35720000       1.00050000      -1.40130000
H        0.78370000      -0.62050000      -0.12660000
H        0.39750000       0.43690000       1.24590000
H       -2.06050000       0.10180000       0.84070000
H       -0.00530000      -3.03730000      -0.79510000
H        0.37310000      -2.87250000       0.91720000
H       -0.72320000      -5.29520000       0.44050000
H       -3.15750000      -4.86360000       1.19280000
H       -2.97200000      -2.27140000       1.95380000
H       -3.67510000      -2.37660000       0.34170000
