12
Properties=species:S:1:pos:R:3 gdb_3890=T pbc="F F F"
N        0.14460000       1.47070000      -0.03790000
C        0.23690000       0.01750000      -0.13310000
C        0.85480000      -0.53470000       1.10960000
N        0.77430000      -0.05870000       2.31710000
C        1.48190000      -0.99310000       3.03240000
N        1.96700000      -1.98170000       2.33490000
O        1.54770000      -1.67470000       1.03060000
H       -0.47250000       1.82270000      -0.76170000
H       -0.26230000       1.72210000       0.85790000
H       -0.72890000      -0.50280000      -0.27100000
H        0.86350000      -0.26410000      -0.98660000
H        1.63820000      -0.93260000       4.09960000
