14
Properties=species:S:1:pos:R:3 gdb_45630=T pbc="F F F"
O        0.08620000       0.02960000      -0.02580000
C       -0.00820000       1.21370000      -0.02950000
C       -1.20700000       2.15000000      -0.13270000
N       -0.65410000       3.49700000      -0.06600000
C        0.60260000       3.34370000       0.04940000
O        1.09940000       2.05850000       0.07850000
C        1.59080000       4.43280000       0.16990000
C        2.87110000       4.23210000       0.87370000
O        2.81470000       4.26460000      -0.54660000
H       -1.74530000       1.98330000      -1.07200000
H       -1.91510000       1.96190000       0.68160000
H        1.14250000       5.42190000       0.12360000
H        3.34030000       5.09180000       1.34880000
H        3.09200000       3.26050000       1.30890000
