18
Properties=species:S:1:pos:R:3 gdb_73957=T pbc="F F F"
C        0.01910000       1.54990000       0.13430000
C        0.01730000       0.05550000       0.01230000
C        0.00760000      -0.60090000      -1.16270000
C        0.04650000      -2.12020000      -1.24770000
O        0.38920000      -2.72890000      -0.02650000
C       -0.34570000      -2.19720000       1.06120000
C        0.03290000      -0.73520000       1.29730000
C       -0.05020000       0.07980000      -2.41460000
N       -0.10000000       0.58640000      -3.45620000
H        0.87940000       1.88140000       0.72900000
H        0.05620000       2.04620000      -0.83700000
H       -0.87740000       1.89140000       0.66650000
H       -0.92850000      -2.48860000      -1.61290000
H        0.80260000      -2.43190000      -1.97530000
H       -1.42810000      -2.28080000       0.87060000
H       -0.10630000      -2.81590000       1.92960000
H        1.03320000      -0.67140000       1.74730000
H       -0.65630000      -0.27850000       2.01930000
