18
Properties=species:S:1:pos:R:3 gdb_51237=T pbc="F F F"
O       -0.16300000      -0.01610000      -0.24160000
C       -0.00010000       1.15970000      -0.03600000
C        1.35090000       1.85090000      -0.06550000
C        1.38420000       2.93470000      -1.12760000
C        1.42670000       2.55720000      -2.62960000
N        2.40440000       3.65940000      -2.88420000
C        2.52010000       3.94910000      -1.43390000
C        1.50780000       5.01480000      -0.98490000
O        0.46320000       4.01380000      -0.84630000
H       -0.85530000       1.83430000       0.18160000
H        1.51990000       2.31880000       0.91310000
H        2.12520000       1.09990000      -0.24480000
H        1.82350000       1.55030000      -2.80720000
H        0.47930000       2.67050000      -3.16530000
H        3.27110000       3.32980000      -3.29110000
H        3.52050000       3.94450000      -0.99880000
H        1.72450000       5.49100000      -0.02020000
H        1.26500000       5.77180000      -1.73660000
