17
Properties=species:S:1:pos:R:3 gdb_123561=T pbc="F F F"
C       -0.03260000       1.46870000       0.09240000
C        1.29130000       0.75600000       0.01760000
C        2.05530000       0.44590000       1.32350000
C        1.09560000      -0.45760000       2.05700000
C       -0.00320000      -0.74500000       1.27770000
N       -0.80100000      -1.56010000       1.99920000
N       -0.27550000      -1.83590000       3.22090000
C        0.87310000      -1.15480000       3.26020000
C       -0.01750000      -0.04600000      -0.02300000
H       -0.34990000       1.89730000       1.03760000
H       -0.33900000       2.03000000      -0.78460000
H        1.86850000       0.88090000      -0.89110000
H        3.00880000      -0.04980000       1.10270000
H        2.29870000       1.36330000       1.87260000
H       -1.68450000      -1.97070000       1.75100000
H        1.48540000      -1.21440000       4.14840000
H       -0.37770000      -0.52330000      -0.92690000
