15
Properties=species:S:1:pos:R:3 gdb_22572=T pbc="F F F"
O       -0.04240000       1.36680000       0.24430000
N        0.06820000      -0.01580000       0.11070000
C       -1.06780000      -0.58500000      -0.07530000
C       -1.05500000      -2.09460000      -0.14590000
N       -2.11630000      -2.58610000      -1.01250000
C       -3.35170000      -1.99840000      -1.11930000
O       -4.30360000      -2.55860000      -1.63550000
C       -3.43210000      -0.60110000      -0.61680000
C       -2.36400000       0.07370000      -0.16630000
H        0.87220000       1.63440000       0.38410000
H       -0.08470000      -2.43310000      -0.51650000
H       -1.17090000      -2.49150000       0.87660000
H       -2.09990000      -3.56130000      -1.27280000
H       -4.41230000      -0.14680000      -0.70210000
H       -2.42440000       1.11720000       0.11770000
