17
Properties=species:S:1:pos:R:3 gdb_85640=T pbc="F F F"
C        0.02400000       1.57450000       0.06370000
C        0.07450000       0.06870000      -0.10210000
C        0.92290000      -0.45220000      -1.26850000
C        1.46850000      -1.77870000      -0.74540000
O        2.07540000      -2.61990000      -1.34320000
C        1.09740000      -1.81870000       0.76770000
O        0.70140000      -0.49150000       1.06860000
C        0.04260000      -2.80480000       1.00480000
C       -0.84240000      -3.60070000       1.17190000
H        1.03510000       1.98440000       0.14860000
H       -0.47090000       2.03670000      -0.79570000
H       -0.53260000       1.83890000       0.96690000
H       -0.94650000      -0.33490000      -0.18190000
H        0.38330000      -0.59580000      -2.20700000
H        1.77240000       0.21360000      -1.46430000
H        1.98610000      -2.05760000       1.36100000
H       -1.61480000      -4.31190000       1.33340000
