19
Properties=species:S:1:pos:R:3 gdb_66649=T pbc="F F F"
O       -0.11780000       1.42460000      -0.00470000
C        0.02410000       0.06180000      -0.01520000
C        0.06560000      -0.98850000       1.06690000
C       -1.03960000      -0.98810000      -0.03510000
C       -0.41020000      -1.75210000      -1.20760000
C       -0.13250000      -3.23840000      -0.94600000
C        0.98010000      -3.23300000       0.15090000
C        1.23560000      -1.74380000       0.42210000
C        0.89000000      -0.94730000      -0.87840000
H        0.64650000       1.80820000       0.44030000
H       -0.20570000      -0.90820000       2.11230000
H       -2.08280000      -0.89220000       0.23820000
H       -0.87000000      -1.52190000      -2.17060000
H       -1.03580000      -3.76650000      -0.62470000
H        0.21930000      -3.73580000      -1.85620000
H        0.67660000      -3.76190000       1.05990000
H        1.88920000      -3.72380000      -0.21320000
H        2.20420000      -1.51130000       0.87060000
H        1.63640000      -0.71270000      -1.63470000
