12
Properties=species:S:1:pos:R:3 gdb_133253=T pbc="F F F"
C        0.00080000       1.46600000       0.03460000
N        0.00080000       0.00780000       0.01200000
N       -0.11520000      -0.58820000      -1.16990000
N       -0.12200000      -1.86130000      -1.25610000
C       -0.00680000      -2.67140000      -0.10080000
O       -0.00970000      -3.87800000      -0.15110000
C        0.11480000      -1.89690000       1.14200000
F        0.22720000      -2.54830000       2.27280000
N        0.11880000      -0.61410000       1.20020000
H        0.93750000       1.82580000       0.46590000
H       -0.10010000       1.80520000      -0.99430000
H       -0.83590000       1.82320000       0.63900000
