20
Properties=species:S:1:pos:R:3 gdb_76866=T pbc="F F F"
C       -0.60500000       1.39610000       0.15920000
C       -0.08080000      -0.03030000       0.03590000
C        0.68550000      -0.45130000      -1.28060000
C        0.76020000       0.51510000      -2.45450000
C        1.97730000      -0.68960000      -0.43620000
N        2.98780000       0.37930000      -0.49300000
C        2.84120000       1.05360000       0.57100000
O        1.87880000       0.71950000       1.46930000
C        1.18180000      -0.39680000       0.86840000
H        0.17430000       2.14200000      -0.01370000
H       -1.40610000       1.57400000      -0.56520000
H       -1.01220000       1.57270000       1.15980000
H       -0.89810000      -0.72460000       0.25600000
H        0.30050000      -1.41250000      -1.63680000
H        1.20170000       1.47260000      -2.16810000
H        1.38060000       0.09920000      -3.25480000
H       -0.23660000       0.70350000      -2.86740000
H        2.45980000      -1.66130000      -0.56840000
H        3.44060000       1.91030000       0.86000000
H        1.06270000      -1.16470000       1.63350000
