14
Properties=species:S:1:pos:R:3 gdb_28984=T pbc="F F F"
N       -0.02140000       1.35310000       0.12880000
C        0.00580000      -0.00670000       0.04660000
N       -1.16500000      -0.65110000       0.03410000
C       -1.11780000      -1.98240000       0.00200000
C        0.08060000      -2.68810000      -0.02480000
N        1.25640000      -2.05830000      -0.02740000
C        1.23870000      -0.72540000       0.00710000
C        2.47040000      -0.00780000      -0.00220000
C        3.47200000       0.66280000      -0.01460000
H        0.81640000       1.86370000      -0.09600000
H       -0.90730000       1.79530000      -0.05450000
H       -2.07220000      -2.50290000      -0.00670000
H        0.09800000      -3.77300000      -0.05100000
H        4.37540000       1.22140000      -0.01870000
