15
Properties=species:S:1:pos:R:3 gdb_86870=T pbc="F F F"
C       -0.14390000       1.56670000      -0.06950000
C        0.23660000       0.09420000      -0.12210000
O        1.33060000      -0.12700000      -1.01050000
C        2.27620000      -0.96200000      -0.37710000
O        1.95240000      -1.01650000       1.00410000
C        0.73420000      -0.43470000       1.21860000
O        0.21210000      -0.37560000       2.28810000
C        2.18550000      -2.37490000      -0.96600000
O        3.08600000      -2.90390000      -1.55450000
H        0.71400000       2.17570000       0.22720000
H       -0.49130000       1.90170000      -1.04940000
H       -0.94550000       1.70530000       0.66060000
H       -0.62990000      -0.50830000      -0.43030000
H        3.28630000      -0.56170000      -0.50760000
H        1.19340000      -2.85710000      -0.81700000
