19
Properties=species:S:1:pos:R:3 gdb_69283=T pbc="F F F"
C       -0.03430000       1.50490000       0.04440000
C        0.05510000      -0.00200000       0.00400000
C       -0.79190000      -0.82550000       0.94210000
C        0.71580000      -0.81230000       1.10970000
C        1.43390000      -1.93720000       0.42270000
C        1.24980000      -1.87870000      -0.90900000
C        0.44340000      -0.67200000      -1.32100000
C        2.16800000      -2.91810000       1.13250000
C        2.79120000      -3.72530000       1.77510000
H        0.89810000       1.96790000      -0.29900000
H       -0.84330000       1.87190000      -0.59860000
H       -0.23210000       1.86460000       1.05910000
H       -1.37820000      -0.28080000       1.67570000
H       -1.25140000      -1.74210000       0.58500000
H        1.15130000      -0.35730000       1.99220000
H        1.62140000      -2.61240000      -1.61400000
H       -0.43270000      -0.94490000      -1.92420000
H        1.04220000       0.00650000      -1.94660000
H        3.33990000      -4.44630000       2.32840000
