15
Properties=species:S:1:pos:R:3 gdb_79507=T pbc="F F F"
O        0.15050000       1.40140000      -0.26860000
C        0.03980000       0.01740000      -0.10210000
C        0.07690000      -0.60700000       1.30630000
C       -1.45400000      -0.35550000       1.54970000
O       -1.73520000      -1.74180000       1.90480000
C       -0.76100000      -1.83350000       0.83620000
C       -1.37090000      -0.63210000       0.01050000
C       -2.48560000      -0.67660000      -0.97150000
O       -3.59220000      -0.24800000      -0.75480000
H       -0.41050000       1.84650000       0.37600000
H        0.70820000      -0.43300000      -0.84050000
H        0.86480000      -0.60810000       2.05830000
H       -1.97540000       0.43040000       2.09280000
H       -0.43670000      -2.81220000       0.48610000
H       -2.22400000      -1.13530000      -1.95200000
