15
Properties=species:S:1:pos:R:3 gdb_16364=T pbc="F F F"
O        0.16140000       1.12380000      -0.57890000
C        0.05090000      -0.12750000       0.05590000
C        0.01740000      -0.17020000       1.62070000
C       -1.30460000      -0.96580000       1.52250000
O       -1.97900000      -1.56840000       2.30550000
C       -1.37850000      -0.68730000       0.03930000
C       -2.52410000      -0.06990000      -0.69180000
N       -2.09480000      -1.43700000      -0.98840000
H        1.08640000       1.38950000      -0.57510000
H        0.77520000      -0.84800000      -0.35010000
H        0.84150000      -0.66780000       2.13650000
H       -0.13780000       0.82550000       2.04780000
H       -3.48330000       0.00940000      -0.18890000
H       -2.27520000       0.73210000      -1.38020000
H       -1.53600000      -1.45170000      -1.84000000
