17
Properties=species:S:1:pos:R:3 gdb_18457=T pbc="F F F"
C       -0.26690000       1.39590000       0.09540000
C        0.23330000      -0.03680000      -0.12250000
C        0.84430000      -0.62670000       1.13120000
C        0.07690000      -1.30390000       2.21180000
O       -1.05330000      -2.02840000       1.65580000
C       -0.17260000      -2.86860000       0.96700000
N       -0.40210000      -3.90160000       0.29710000
C        1.05150000      -2.12820000       1.39430000
H        0.54400000       2.05840000       0.41820000
H       -0.68560000       1.80830000      -0.82730000
H       -1.04780000       1.42660000       0.86220000
H       -0.59340000      -0.66880000      -0.45880000
H        0.98460000      -0.05360000      -0.92090000
H        1.68580000      -0.05890000       1.52890000
H        0.03550000      -1.06880000       3.26670000
H       -1.40190000      -4.10900000       0.26950000
H        2.01000000      -2.56280000       1.63650000
