15
Properties=species:S:1:pos:R:3 gdb_130061=T pbc="F F F"
N        0.00630000       1.39000000      -0.04940000
C        0.03760000       0.00120000      -0.01400000
N       -1.05740000      -0.71340000      -0.25430000
N       -0.66450000      -2.00680000      -0.07730000
C       -1.65510000      -3.05070000      -0.13820000
C       -2.30940000      -3.31920000       1.15470000
N       -2.81600000      -3.54910000       2.16660000
C        0.64090000      -2.10470000       0.27620000
C        1.14280000      -0.82590000       0.32240000
H        0.84810000       1.81020000      -0.41690000
H       -0.81530000       1.74340000      -0.52150000
H       -2.41370000      -2.75130000      -0.86620000
H       -1.18900000      -3.97490000      -0.49380000
H        1.10380000      -3.06090000       0.46550000
H        2.15050000      -0.52610000       0.55930000
