21
Properties=species:S:1:pos:R:3 gdb_57446=T pbc="F F F"
C       -1.09370000      -0.24790000       0.33810000
C       -1.23860000      -1.35410000      -0.71050000
C       -1.14120000      -2.74050000      -0.05520000
O       -2.54460000      -1.18520000      -1.27260000
C       -0.14370000      -1.23150000      -1.77730000
C       -0.37480000      -1.52810000      -3.22060000
C       -0.04520000      -0.09840000      -2.79900000
C       -1.08000000       0.95590000      -2.94840000
O       -0.81330000       2.11080000      -3.18910000
H       -0.09630000      -0.26980000       0.78690000
H       -1.24340000       0.73490000      -0.11570000
H       -1.83700000      -0.37750000       1.12960000
H       -1.94640000      -2.86570000       0.67420000
H       -1.22500000      -3.53320000      -0.80830000
H       -0.18490000      -2.87300000       0.45970000
H       -2.78180000      -2.00100000      -1.72580000
H        0.83150000      -1.52260000      -1.39470000
H        0.37220000      -2.07230000      -3.78680000
H       -1.39710000      -1.69650000      -3.54430000
H        0.95570000       0.26580000      -3.00710000
H       -2.12640000       0.61270000      -2.83370000
