18
Properties=species:S:1:pos:R:3 gdb_102259=T pbc="F F F"
C        0.65930000       0.84070000       0.33160000
O        0.19680000      -0.42020000      -0.12260000
C       -1.22400000      -0.56350000      -0.09060000
C       -1.58420000      -1.88470000      -0.79350000
C       -1.37870000      -1.91870000      -2.31290000
N       -0.20610000      -1.38640000      -2.75040000
O       -2.20620000      -2.41360000      -3.05380000
C       -1.73330000      -0.54830000       1.28550000
C       -2.15240000      -0.54840000       2.41190000
H        1.74780000       0.82710000       0.24710000
H        0.25900000       1.66000000      -0.28380000
H        0.37900000       1.01440000       1.37750000
H       -1.68020000       0.27610000      -0.64130000
H       -0.99010000      -2.68190000      -0.33240000
H       -2.63640000      -2.11110000      -0.61940000
H        0.45190000      -0.99410000      -2.09560000
H       -0.00940000      -1.40910000      -3.73710000
H       -2.52760000      -0.54690000       3.40590000
