18
Properties=species:S:1:pos:R:3 gdb_115228=T pbc="F F F"
C       -0.07890000       1.41750000      -0.03760000
O       -0.04720000      -0.00340000      -0.01850000
C       -1.28840000      -0.59570000       0.07230000
C       -1.09330000      -2.09720000      -0.06350000
O       -2.31000000      -2.81840000       0.17240000
C       -3.18960000      -2.36870000       1.11250000
N       -4.07720000      -3.11120000       1.61990000
C       -3.14940000      -0.88920000       1.44420000
O       -1.85380000      -0.32920000       1.34450000
H        0.95300000       1.75130000      -0.15770000
H       -0.67820000       1.78660000      -0.88250000
H       -0.48900000       1.81880000       0.89450000
H       -1.97790000      -0.21430000      -0.70930000
H       -0.76930000      -2.36530000      -1.07110000
H       -0.32970000      -2.40940000       0.65810000
H       -4.00170000      -4.06020000       1.24710000
H       -3.84720000      -0.37080000       0.76420000
H       -3.49960000      -0.74510000       2.46570000
