21
Properties=species:S:1:pos:R:3 gdb_1132=T pbc="F F F"
C        1.39970000       0.78560000      -0.64130000
C        0.29500000      -0.04510000       0.00440000
C       -0.22160000      -1.14340000      -0.93050000
O        0.84480000      -0.60850000       1.19210000
C       -0.08260000      -0.91340000       2.23000000
C        0.53000000      -2.04480000       3.04980000
C       -0.37120000       0.32580000       3.08330000
H        2.26060000       0.15020000      -0.87320000
H        1.04980000       1.24570000      -1.57050000
H        1.73270000       1.57480000       0.03790000
H       -0.54150000       0.62230000       0.26510000
H        0.59950000      -1.80670000      -1.22060000
H       -0.99440000      -1.74910000      -0.44730000
H       -0.65580000      -0.71010000      -1.83770000
H       -1.02710000      -1.26890000       1.78870000
H        1.49180000      -1.72870000       3.46640000
H       -0.12810000      -2.32850000       3.87670000
H        0.70360000      -2.92270000       2.42180000
H        0.55210000       0.68360000       3.55020000
H       -0.78520000       1.13940000       2.47990000
H       -1.09360000       0.09510000       3.87330000
