17
Properties=species:S:1:pos:R:3 gdb_123915=T pbc="F F F"
C       -0.05640000       1.50540000       0.00380000
C        1.35240000       2.10470000       0.11410000
N        1.95520000       1.67300000       1.37280000
C        1.84520000       0.33570000       1.67010000
N        2.54760000      -0.36390000       2.54630000
C        1.96860000      -1.59720000       2.44850000
N        0.97610000      -1.70890000       1.58720000
N        0.90260000      -0.43550000       1.08430000
C       -0.01280000      -0.02910000       0.03730000
H       -0.66050000       1.87480000       0.83890000
H       -0.53030000       1.83580000      -0.92420000
H        1.95340000       1.80030000      -0.75870000
H        1.29830000       3.19670000       0.11330000
H        2.85610000       2.06250000       1.60760000
H        2.29560000      -2.43920000       3.04080000
H       -0.99940000      -0.45080000       0.24700000
H        0.32330000      -0.43520000      -0.92500000
