17
Properties=species:S:1:pos:R:3 gdb_79650=T pbc="F F F"
C       -0.09340000       1.61030000      -0.03580000
C        0.14280000       0.10490000       0.04070000
C        1.38910000      -0.69680000      -0.19990000
C        2.68230000      -0.16110000       0.46690000
N        2.38090000       1.11790000       1.15980000
C        2.05090000      -0.17360000       1.79700000
C        0.71230000      -0.71210000       1.19980000
C       -0.00240000      -1.77840000       1.81000000
N       -0.57370000      -2.64640000       2.32340000
H        0.67910000       2.10990000      -0.62060000
H       -1.06280000       1.79680000      -0.50900000
H       -0.09980000       2.07120000       0.95210000
H       -0.69740000      -0.45950000      -0.36150000
H        1.41000000      -1.52950000      -0.89140000
H        3.68720000      -0.42520000       0.16860000
H        3.25080000       1.44410000       1.58080000
H        2.43860000      -0.46410000       2.76360000
