17
Properties=species:S:1:pos:R:3 gdb_14247=T pbc="F F F"
C        0.31290000       1.57420000      -0.12580000
C        0.06930000       0.07840000      -0.02960000
C        0.87860000      -0.87040000      -0.96040000
C        1.28510000      -1.64310000       0.32130000
N        0.53860000      -0.65880000       1.20790000
C        1.82090000      -0.17680000       1.81060000
C        2.60500000      -1.20100000       0.96710000
O        3.74900000      -1.53130000       0.87270000
H        1.37640000       1.82890000      -0.17160000
H       -0.15360000       1.96310000      -1.03710000
H       -0.13130000       2.09860000       0.72730000
H       -1.00680000      -0.10420000      -0.11940000
H        0.29160000      -1.44600000      -1.67810000
H        1.71250000      -0.40170000      -1.49030000
H        1.02900000      -2.70420000       0.38180000
H        2.08100000       0.87320000       1.64700000
H        1.86560000      -0.37460000       2.88770000
