23
Properties=species:S:1:pos:R:3 gdb_88455=T pbc="F F F"
C        0.05960000       1.63370000       0.20710000
C       -0.01240000       0.11170000       0.05170000
C        0.93670000      -0.39880000      -1.08900000
C        2.02960000      -0.69810000      -0.03010000
C        0.94450000      -0.59380000       1.07420000
C       -1.42410000      -0.45320000      -0.00270000
C       -2.67840000       0.31430000       0.37680000
C       -2.44150000      -0.05850000      -1.05320000
O       -2.18490000       0.99470000      -1.94230000
H        1.10170000       1.97040000       0.20020000
H       -0.47200000       2.14240000      -0.60030000
H       -0.37890000       1.94930000       1.15990000
H        0.55450000      -1.31460000      -1.55110000
H        1.18300000       0.31490000      -1.88160000
H        2.55700000      -1.65050000      -0.11860000
H        2.77640000       0.09700000       0.03850000
H        1.19480000      -0.02970000       1.97720000
H        0.56990000      -1.57660000       1.37540000
H       -1.45240000      -1.51430000       0.23840000
H       -3.46060000      -0.19330000       0.93040000
H       -2.57030000       1.36630000       0.61300000
H       -3.05440000      -0.85570000      -1.47460000
H       -1.55610000       0.67800000      -2.59930000
