18
Properties=species:S:1:pos:R:3 gdb_92079=T pbc="F F F"
O        0.20920000       1.30420000       0.41600000
C        0.02900000      -0.04090000       0.08740000
C       -1.46160000      -0.37920000      -0.11640000
N       -1.64980000      -1.82140000      -0.30890000
C       -2.02180000      -2.27590000      -1.64550000
C       -0.65080000      -2.53180000      -1.13070000
C        0.56670000      -1.80940000      -1.70680000
C        0.73990000      -0.38670000      -1.20800000
O        1.38190000       0.45500000      -1.79840000
H        0.78580000       1.66200000      -0.27890000
H        0.41690000      -0.69820000       0.88420000
H       -2.01720000      -0.06110000       0.77060000
H       -1.83810000       0.21230000      -0.96350000
H       -2.75580000      -3.07620000      -1.69090000
H       -2.12780000      -1.52090000      -2.42470000
H       -0.43790000      -3.52910000      -0.75350000
H        1.47310000      -2.34450000      -1.39430000
H        0.58460000      -1.79990000      -2.80110000
