25
Properties=species:S:1:pos:R:3 gdb_112912=T pbc="F F F"
C        0.42800000       1.05980000       0.51350000
O        0.27530000      -0.29330000       0.16480000
C        0.54230000      -0.57770000      -1.20470000
C        2.06450000      -0.69000000      -1.48150000
C        2.40600000      -2.21190000      -1.48750000
C        3.66250000      -2.57060000      -0.69410000
C        1.11820000      -2.89450000      -0.98500000
C       -0.00690000      -1.98640000      -1.50560000
C       -1.40280000      -2.27140000      -0.95740000
H        1.46090000       1.41770000       0.38320000
H       -0.23370000       1.70930000      -0.08210000
H        0.15960000       1.15640000       1.56880000
H        0.06080000       0.19260000      -1.82660000
H        2.33410000      -0.21730000      -2.43100000
H        2.62010000      -0.16460000      -0.69830000
H        2.56180000      -2.52130000      -2.52930000
H        3.55700000      -2.27520000       0.35640000
H        3.85670000      -3.64860000      -0.71950000
H        4.54780000      -2.06490000      -1.09520000
H        1.02770000      -3.93060000      -1.32620000
H        1.09770000      -2.90300000       0.11210000
H       -0.03040000      -2.07790000      -2.60150000
H       -1.42350000      -2.15990000       0.12890000
H       -2.14390000      -1.58260000      -1.37800000
H       -1.71680000      -3.29010000      -1.20770000
