21
Properties=species:S:1:pos:R:3 gdb_89729=T pbc="F F F"
C       -0.10070000       1.50720000      -0.02250000
C       -0.01870000      -0.02240000      -0.01300000
C       -1.38330000      -0.66310000      -0.24080000
C        1.14930000      -0.56470000      -0.90540000
O        1.56840000       0.33030000      -1.90840000
C        2.04360000      -0.73770000       0.36000000
C        0.77940000      -0.55220000       1.20010000
C        0.59400000      -0.34280000       2.63410000
O        0.27970000      -1.60230000       2.01930000
H        0.86940000       1.97120000       0.17500000
H       -0.44320000       1.86790000      -0.99640000
H       -0.80620000       1.85200000       0.74090000
H       -1.77860000      -0.38170000      -1.22300000
H       -1.32490000      -1.75370000      -0.18860000
H       -2.10360000      -0.33600000       0.51690000
H        0.88110000      -1.54090000      -1.33310000
H        2.28720000      -0.07950000      -2.39940000
H        2.56670000      -1.68820000       0.48680000
H        2.75020000       0.09080000       0.46550000
H        1.45610000      -0.35140000       3.30050000
H       -0.26370000       0.22310000       2.99700000
