23
Properties=species:S:1:pos:R:3 gdb_68074=T pbc="F F F"
C       -0.08860000       1.54800000       0.01450000
C        0.03120000       0.03520000      -0.00780000
C        1.09780000      -0.65700000      -0.90910000
C        1.12890000      -1.77900000       0.17210000
C        2.40130000      -2.56750000       0.42270000
C        0.69410000      -0.69250000       1.19490000
C       -0.08350000      -2.69480000      -0.07360000
O       -1.16670000      -2.00420000      -0.67880000
C       -1.32000000      -0.65100000      -0.27640000
H        0.87310000       2.01260000       0.25630000
H       -0.41560000       1.93780000      -0.95650000
H       -0.81500000       1.87920000       0.76670000
H        0.81220000      -0.93090000      -1.92830000
H        2.03470000      -0.09160000      -0.92370000
H        3.23880000      -1.89760000       0.64420000
H        2.28700000      -3.24810000       1.27530000
H        2.67580000      -3.17190000      -0.44970000
H        1.55240000      -0.13470000       1.58440000
H        0.05200000      -0.99830000       2.02890000
H        0.17470000      -3.50270000      -0.76860000
H       -0.39300000      -3.15810000       0.87930000
H       -1.95540000      -0.57570000       0.62310000
H       -1.84900000      -0.15760000      -1.10040000
