16
Properties=species:S:1:pos:R:3 gdb_67734=T pbc="F F F"
O        0.09170000       1.37470000       0.08810000
C        0.06320000      -0.00180000       0.07680000
C        0.93190000      -0.74310000       1.07210000
C        0.70070000      -2.03160000       0.81270000
C       -0.30420000      -1.99370000      -0.33560000
O       -0.75180000      -3.15600000      -0.95240000
C       -1.29080000      -0.79100000      -0.05730000
N       -1.33820000      -0.39750000      -1.51550000
C        0.09640000      -0.81120000      -1.27630000
H       -0.51730000       1.65540000      -0.61020000
H        1.57920000      -0.27630000       1.80020000
H        1.11610000      -2.91960000       1.26830000
H       -1.24030000      -3.67800000      -0.30700000
H       -2.16910000      -0.75510000       0.59470000
H       -1.81200000      -1.13100000      -2.04820000
H        0.85520000      -0.80050000      -2.06320000
