17
Properties=species:S:1:pos:R:3 gdb_95612=T pbc="F F F"
O        0.05000000       1.39700000       0.14240000
C       -0.01240000       0.00800000       0.01120000
C       -1.46100000      -0.51740000       0.01150000
C       -1.48860000      -2.04460000      -0.12250000
C       -0.82320000      -2.51760000      -1.43070000
C        0.57500000      -1.95030000      -1.60310000
O        1.53410000      -2.57450000      -1.97890000
C        0.69730000      -0.44990000      -1.25440000
O        1.29940000       0.33000000      -1.95500000
H        0.61830000       1.70550000      -0.58130000
H        0.51740000      -0.48480000       0.85070000
H       -1.94420000      -0.19480000       0.93810000
H       -2.00620000      -0.04560000      -0.81530000
H       -0.97440000      -2.50000000       0.73320000
H       -2.52060000      -2.40610000      -0.09270000
H       -0.77150000      -3.60620000      -1.51200000
H       -1.41670000      -2.15100000      -2.28220000
