15
Properties=species:S:1:pos:R:3 gdb_4758=T pbc="F F F"
C       -0.01300000       1.40420000      -0.00280000
N        0.01240000      -0.04770000       0.04050000
C       -1.09140000      -0.65780000       0.06830000
N       -1.26270000      -2.04000000       0.10030000
C       -2.62650000      -2.32550000      -0.00540000
N       -3.04150000      -3.64820000      -0.15080000
C       -3.27820000      -1.15490000       0.01460000
O       -2.35280000      -0.10710000       0.06880000
H        0.95510000       1.76670000      -0.36030000
H       -0.79670000       1.80530000      -0.66040000
H       -0.17550000       1.83450000       0.99580000
H       -0.54150000      -2.64210000      -0.26170000
H       -2.71150000      -4.24300000       0.60310000
H       -4.04850000      -3.72260000      -0.21710000
H       -4.31890000      -0.88780000       0.02920000
