18
Properties=species:S:1:pos:R:3 gdb_105334=T pbc="F F F"
O        0.12010000       1.39900000      -0.15430000
C        0.07330000       0.01080000       0.09700000
C       -1.35710000      -0.55190000      -0.00390000
C       -2.06190000      -0.51720000      -1.41750000
C       -2.25940000      -2.03580000      -1.34050000
C       -0.93450000      -2.72330000      -1.21150000
C       -1.54250000      -2.08770000       0.01050000
C       -2.17780000       0.10380000       1.01110000
N       -2.78430000       0.65650000       1.82680000
H       -0.35300000       1.84840000       0.55580000
H        0.69630000      -0.45760000      -0.66860000
H        0.49740000      -0.24890000       1.07870000
H       -2.99090000       0.05230000      -1.40120000
H       -1.43100000      -0.14650000      -2.23020000
H       -3.15570000      -2.56010000      -1.64490000
H       -0.96890000      -3.80790000      -1.20550000
H       -0.04840000      -2.31510000      -1.68980000
H       -1.78360000      -2.65780000       0.89830000
