17
Properties=species:S:1:pos:R:3 gdb_86606=T pbc="F F F"
O        0.11090000       1.47260000       0.31560000
C        0.09010000       0.09860000       0.09290000
C       -1.25180000      -0.72100000       0.07260000
C       -0.70800000      -1.57320000      -1.12370000
C       -1.61450000      -1.94120000      -2.26130000
C       -1.33680000      -3.08170000      -3.14220000
O       -2.34480000      -3.16410000      -2.13340000
C        0.26800000      -0.40020000      -1.34170000
O        0.68070000       0.15820000      -2.32070000
H        0.12130000       1.90460000      -0.54780000
H        0.79750000      -0.39050000       0.77490000
H       -1.50970000      -1.25740000       0.98490000
H       -2.08620000      -0.08640000      -0.23740000
H       -0.18340000      -2.46230000      -0.75940000
H       -2.19770000      -1.11530000      -2.67120000
H       -1.69800000      -3.06880000      -4.16910000
H       -0.45040000      -3.69070000      -2.96930000
