22
Properties=species:S:1:pos:R:3 gdb_87217=T pbc="F F F"
C       -0.26050000       1.44970000       0.24280000
N       -0.02270000       0.01440000       0.24240000
C        1.27250000      -0.46350000      -0.23220000
C        0.89910000      -0.60090000       1.20810000
C        1.63430000       0.22700000       2.24760000
C        0.39820000      -1.95260000       1.70730000
C       -0.73830000      -1.82060000       2.69320000
C       -0.96600000      -2.79050000       3.77020000
O       -0.39730000      -1.51060000       4.05210000
H        0.63770000       2.06770000       0.39400000
H       -0.69740000       1.72950000      -0.72150000
H       -0.98370000       1.70060000       1.02560000
H        1.25420000      -1.32110000      -0.90180000
H        2.02820000       0.28290000      -0.47760000
H        1.99760000       1.17390000       1.84320000
H        0.99650000       0.43520000       3.11130000
H        2.50360000      -0.32880000       2.61490000
H        0.04120000      -2.53410000       0.84990000
H        1.21900000      -2.51090000       2.17350000
H       -1.59860000      -1.26420000       2.31900000
H       -1.97210000      -2.95140000       4.15520000
H       -0.28840000      -3.63670000       3.88130000
