16
Properties=species:S:1:pos:R:3 gdb_111904=T pbc="F F F"
C       -0.01860000       1.44540000      -0.00710000
C       -0.09100000      -0.03800000      -0.01760000
N       -1.12960000      -0.76590000      -0.10360000
C       -0.66230000      -2.15140000      -0.07970000
C       -1.12850000      -2.90460000      -1.33850000
O       -2.53270000      -2.94350000      -1.40210000
C        0.85220000      -2.04950000       0.03600000
O        1.70340000      -2.88000000       0.07310000
O        1.12930000      -0.68320000       0.07960000
H        0.61120000       1.79980000      -0.82890000
H       -1.02160000       1.86010000      -0.10360000
H        0.43650000       1.79390000       0.92540000
H       -1.06880000      -2.67130000       0.79580000
H       -0.68710000      -2.42480000      -2.22650000
H       -0.76830000      -3.93620000      -1.29750000
H       -2.83850000      -2.03230000      -1.31420000
