16
Properties=species:S:1:pos:R:3 gdb_5074=T pbc="F F F"
C        0.08600000       1.52980000       0.00430000
C        0.04170000       0.03320000       0.00140000
C        0.01070000      -0.80770000      -1.08900000
O       -0.01660000      -0.57230000      -2.42830000
N        0.02470000      -2.10060000      -0.67310000
C        0.04350000      -2.13040000       0.72050000
C        0.06240000      -0.82780000       1.15250000
N        0.18530000      -0.35320000       2.47710000
H        0.82820000       1.89860000       0.72160000
H        0.36880000       1.93220000      -0.97670000
H       -0.87510000       1.99290000       0.26890000
H       -0.06140000       0.37920000      -2.56290000
H       -0.01660000      -2.89330000      -1.28720000
H        0.06060000      -3.06280000       1.25880000
H        0.06960000      -1.09750000       3.15430000
H       -0.49550000       0.36890000       2.68580000
