19
Properties=species:S:1:pos:R:3 gdb_57096=T pbc="F F F"
C       -0.14160000       1.48450000       0.00410000
C        0.02910000      -0.04740000       0.00170000
C        0.69320000      -0.50650000      -1.21510000
C        1.25320000      -0.84810000      -2.22200000
C        0.80700000      -0.51580000       1.24430000
O        0.13060000      -0.07900000       2.40230000
C        0.34860000      -1.07680000       3.38920000
C        0.34840000      -2.35860000       2.55650000
O        0.88440000      -1.93220000       1.30880000
H        0.83310000       1.98130000      -0.02680000
H       -0.70950000       1.80360000      -0.87290000
H       -0.66770000       1.80160000       0.90670000
H       -0.95950000      -0.51920000       0.07030000
H        1.74100000      -1.16870000      -3.10880000
H        1.83470000      -0.11420000       1.21980000
H        1.31460000      -0.92650000       3.89410000
H       -0.45580000      -1.01810000       4.12530000
H        0.98310000      -3.14840000       2.96940000
H       -0.66920000      -2.75120000       2.42470000
