16
Properties=species:S:1:pos:R:3 gdb_77145=T pbc="F F F"
N       -0.00970000       1.29690000       0.44730000
C        0.03250000       0.03460000      -0.04680000
O        1.08260000      -0.49920000      -0.38680000
C       -1.28880000      -0.68930000      -0.17390000
C       -1.65930000      -0.94180000      -1.67360000
C       -1.06020000      -2.35730000      -1.53160000
O       -0.63310000      -3.15610000      -2.30800000
C       -1.07910000      -2.25330000       0.01420000
O       -0.04520000      -2.75180000       0.78210000
H        0.85380000       1.80790000       0.53730000
H       -0.86840000       1.73850000       0.72370000
H       -2.07480000      -0.24280000       0.43710000
H       -2.73960000      -0.95950000      -1.84210000
H       -1.18750000      -0.30430000      -2.42310000
H       -2.01670000      -2.68770000       0.38430000
H        0.76240000      -2.34180000       0.43340000
