23
Properties=species:S:1:pos:R:3 gdb_100652=T pbc="F F F"
C       -0.12050000       1.60150000      -0.08110000
C        0.06790000       0.08670000       0.04100000
N        0.75500000      -0.49070000      -1.11760000
C        2.16050000      -0.09620000      -1.16200000
C        0.53070000      -1.94070000      -1.31500000
C        1.12840000      -2.84530000      -0.20530000
C       -0.97600000      -2.25060000      -1.48640000
C        1.16920000      -2.31410000      -2.59960000
N        1.65210000      -2.64880000      -3.59470000
H        0.82690000       2.14540000      -0.04070000
H       -0.61710000       1.84910000      -1.02360000
H       -0.73930000       1.96450000       0.74540000
H        0.59880000      -0.13790000       0.98510000
H       -0.92080000      -0.36760000       0.12310000
H        2.72680000      -0.37880000      -0.25650000
H        2.65070000      -0.54270000      -2.02930000
H        2.23140000       0.98810000      -1.27090000
H        0.66220000      -2.60690000       0.75460000
H        0.93990000      -3.89950000      -0.42530000
H        2.20780000      -2.70610000      -0.11390000
H       -1.43320000      -1.52940000      -2.16730000
H       -1.10120000      -3.25390000      -1.90000000
H       -1.49740000      -2.22200000      -0.52730000
