15
Properties=species:S:1:pos:R:3 gdb_24061=T pbc="F F F"
C        1.40650000      -0.46970000       0.23910000
C        0.58660000       0.36250000      -0.03940000
C       -0.42780000       1.35660000      -0.37850000
O       -0.34830000       2.54580000       0.40720000
C        0.66600000       3.38030000       0.08510000
C        1.72650000       3.35210000      -0.78320000
N        2.43260000       4.53810000      -0.68580000
C        1.81440000       5.25310000       0.21680000
N        0.72300000       4.59280000       0.72480000
H        2.13900000      -1.19930000       0.48330000
H       -0.36600000       1.61750000      -1.44400000
H       -1.42680000       0.95640000      -0.18440000
H        2.03490000       2.55890000      -1.44360000
H        2.09210000       6.24050000       0.55260000
H        0.06960000       4.91250000       1.42000000
