21
Properties=species:S:1:pos:R:3 gdb_13809=T pbc="F F F"
C        0.69190000       0.98620000      -0.02340000
C        0.06580000      -0.10940000       0.85120000
C       -0.16740000       0.37730000       2.28810000
C       -1.23280000      -0.58730000       0.22870000
N       -1.14660000      -1.52590000      -0.90320000
C       -1.80540000      -1.95650000       0.35020000
C       -1.13690000      -3.12700000       1.03470000
O       -1.25820000      -4.30260000       0.25070000
H        1.65260000       1.31580000       0.38510000
H        0.85960000       0.62030000      -1.04060000
H        0.03770000       1.86490000      -0.08170000
H        0.76230000      -0.95470000       0.87360000
H       -0.58050000      -0.41600000       2.91940000
H        0.76810000       0.71870000       2.74240000
H       -0.87030000       1.21890000       2.30890000
H       -1.97600000       0.20770000       0.13820000
H       -1.83910000      -1.30170000      -1.61170000
H       -2.89200000      -2.02820000       0.32630000
H       -0.08270000      -2.89960000       1.24470000
H       -1.62810000      -3.33960000       1.99020000
H       -0.90290000      -4.07150000      -0.61620000
