23
Properties=species:S:1:pos:R:3 gdb_68477=T pbc="F F F"
C       -0.15400000       1.59100000       0.10210000
C        0.05200000       0.08890000       0.03090000
C        1.22460000      -0.44200000      -0.85630000
C        1.52090000      -1.51290000       0.23460000
C        0.73730000      -0.61840000       1.23890000
C        0.86680000      -2.87730000      -0.02200000
C       -0.52030000      -2.82230000      -0.69010000
C       -1.49920000      -1.81500000      -0.07800000
O       -1.21520000      -0.45050000      -0.33970000
H        0.78640000       2.10360000       0.32400000
H       -0.53770000       1.96520000      -0.85240000
H       -0.88230000       1.84110000       0.88010000
H        0.96220000      -0.77750000      -1.86220000
H        2.02860000       0.29590000      -0.92900000
H        2.57690000      -1.66020000       0.47820000
H        1.40000000       0.08010000       1.75680000
H        0.10280000      -1.10320000       1.98510000
H        1.52930000      -3.48480000      -0.65080000
H        0.78690000      -3.40680000       0.93730000
H       -0.41980000      -2.59600000      -1.75790000
H       -0.98100000      -3.81610000      -0.63020000
H       -2.49350000      -1.96840000      -0.50980000
H       -1.59130000      -1.99610000       1.00440000
