21
Properties=species:S:1:pos:R:3 gdb_33402=T pbc="F F F"
C       -0.25240000      -1.16110000      -0.08850000
C       -0.11090000       0.03160000      -0.03480000
C        0.07940000       1.48540000      -0.00040000
C        1.56510000       1.83260000       0.05120000
C        2.03580000       3.08950000       0.73530000
C        2.32760000       1.73910000       1.34480000
C       -0.61880000       2.14780000      -1.18530000
C       -2.10530000       2.37870000      -1.16520000
C       -1.15700000       3.55030000      -1.07250000
H       -0.38380000      -2.21400000      -0.12460000
H       -0.38690000       1.86670000       0.92030000
H        2.10560000       1.53840000      -0.84430000
H        2.85250000       3.64450000       0.28700000
H        1.29460000       3.71410000       1.22260000
H        1.77660000       1.45530000       2.23570000
H        3.34490000       1.36540000       1.31760000
H       -0.19140000       1.87000000      -2.14500000
H       -2.66220000       2.23230000      -2.08380000
H       -2.64790000       2.09380000      -0.26960000
H       -1.07010000       4.05530000      -0.11630000
H       -1.06010000       4.20910000      -1.92830000
