19
Properties=species:S:1:pos:R:3 gdb_3239=T pbc="F F F"
C       -0.15900000       1.62550000       0.01810000
C       -0.18570000       0.12740000      -0.21010000
C       -0.20850000      -0.82150000       0.96300000
C       -1.42850000      -0.67120000       0.08590000
C        1.24110000       2.17200000       0.21400000
C        2.08380000       2.55280000      -0.97850000
C        1.54330000       3.62240000      -0.05980000
H       -0.62790000       2.13880000      -0.83320000
H       -0.77660000       1.86520000       0.89510000
H        0.39640000      -0.20040000      -1.06790000
H        0.36170000      -1.74180000       0.90040000
H       -0.24870000      -0.39360000       1.96000000
H       -2.28320000      -0.14250000       0.49570000
H       -1.69090000      -1.48850000      -0.57690000
H        1.77940000       1.72350000       1.04530000
H        3.14720000       2.34120000      -0.95440000
H        1.63740000       2.46200000      -1.96400000
H        0.73560000       4.24560000      -0.43040000
H        2.23730000       4.14070000       0.59280000
