18
Properties=species:S:1:pos:R:3 gdb_12532=T pbc="F F F"
O        0.06230000       1.40450000       0.15140000
C        0.02250000      -0.00940000      -0.03010000
C       -1.44970000      -0.42550000       0.10090000
C       -1.65350000      -1.90180000       0.44940000
C       -1.04900000      -2.93630000      -0.45830000
C       -0.16440000      -2.79740000      -1.45840000
C        0.52140000      -1.60280000      -1.94560000
C        0.62110000      -0.40430000      -1.35710000
H        0.97980000       1.68700000       0.08310000
H        0.58910000      -0.50410000       0.77960000
H       -1.89300000       0.18800000       0.89150000
H       -1.97020000      -0.17750000      -0.82950000
H       -1.29630000      -2.09390000       1.47290000
H       -2.73490000      -2.09180000       0.49910000
H       -1.40450000      -3.94700000      -0.26330000
H        0.09510000      -3.70580000      -1.99880000
H        1.03130000      -1.73170000      -2.89780000
H        1.16870000       0.38490000      -1.86860000
