19
Properties=species:S:1:pos:R:3 gdb_78620=T pbc="F F F"
C        0.07530000       1.60110000      -0.08990000
C        0.09310000       0.08150000       0.00410000
C        1.09340000      -0.73560000      -0.87020000
C        1.26190000      -1.72820000       0.34950000
C        2.25280000      -0.69630000       0.94620000
C        2.47490000      -0.19540000      -0.44480000
O        3.42220000       0.23340000      -1.04310000
C        0.73350000      -0.63150000       1.21290000
C        0.19440000      -0.69270000       2.61250000
H        1.07360000       2.02720000       0.05290000
H       -0.28820000       1.92730000      -1.07020000
H       -0.58700000       2.03190000       0.66870000
H       -0.91680000      -0.32430000      -0.13160000
H        0.88700000      -0.99060000      -1.90620000
H        1.30580000      -2.80400000       0.42400000
H        2.96510000      -0.84290000       1.74700000
H        0.24640000       0.28620000       3.10180000
H       -0.85360000      -1.01230000       2.60880000
H        0.75820000      -1.40230000       3.22670000
