16
Properties=species:S:1:pos:R:3 gdb_36102=T pbc="F F F"
C       -0.07350000      -1.17770000       0.30910000
C       -0.06260000       0.00650000       0.10770000
C       -0.02350000       1.44530000      -0.14800000
C        1.37410000       2.00420000      -0.15960000
N        2.16430000       2.30320000       1.04980000
C        1.87740000       3.37810000       0.06250000
C        2.87800000       3.20240000      -1.13740000
O        3.71880000       2.07930000      -0.88350000
C        2.39620000       1.83880000      -1.35390000
H       -0.08400000      -2.22330000       0.49390000
H       -0.50560000       1.65600000      -1.11280000
H       -0.61850000       1.97560000       0.60780000
H        1.49910000       2.42570000       1.81490000
H        1.34750000       4.28280000       0.33050000
H        3.22750000       3.96590000      -1.82110000
H        2.26360000       1.24320000      -2.24910000
