17
Properties=species:S:1:pos:R:3 gdb_17882=T pbc="F F F"
C       -0.10400000       1.51050000      -0.00150000
C        0.02150000      -0.00760000       0.01680000
C        1.18750000      -0.59850000      -0.82560000
C        2.10160000      -0.42380000       0.41060000
C        0.79190000      -0.63660000       1.22820000
N        0.50100000      -2.07640000       1.26590000
C        0.60340000      -2.63060000       0.13010000
O        0.94170000      -2.00910000      -1.02860000
H        0.84600000       2.01780000       0.19050000
H       -0.47350000       1.85800000      -0.97260000
H       -0.81430000       1.84310000       0.76260000
H       -0.95120000      -0.46840000      -0.17920000
H        1.45180000      -0.18790000      -1.80030000
H        2.90530000      -1.14830000       0.55320000
H        2.49180000       0.59140000       0.48270000
H        0.68920000      -0.19810000       2.22130000
H        0.42720000      -3.69210000      -0.02290000
