21
Properties=species:S:1:pos:R:3 gdb_31019=T pbc="F F F"
C        0.19850000       1.60630000      -0.20480000
C       -0.06440000       0.11040000       0.04300000
C        0.66090000      -0.43300000       1.24120000
C        0.12350000      -0.75640000       2.47010000
C       -1.27340000      -0.69970000       2.99460000
N        1.16370000      -1.20160000       3.26690000
C        2.34580000      -1.17080000       2.57020000
N        3.54180000      -1.53890000       3.22420000
C        2.06790000      -0.70200000       1.30900000
H        1.26750000       1.79780000      -0.34280000
H       -0.32690000       1.95920000      -1.09890000
H       -0.13490000       2.20690000       0.64760000
H       -1.14310000      -0.05040000       0.15350000
H        0.23090000      -0.45310000      -0.85210000
H       -1.62410000      -1.67950000       3.34500000
H       -1.37720000      -0.00010000       3.83490000
H       -1.96010000      -0.36840000       2.21260000
H        1.10020000      -1.41990000       4.24650000
H        3.64600000      -2.54790000       3.29540000
H        4.34300000      -1.18840000       2.71350000
H        2.78270000      -0.58680000       0.50700000
