16
Properties=species:S:1:pos:R:3 gdb_129968=T pbc="F F F"
N       -0.03290000       1.33200000      -0.07960000
C       -0.05610000      -0.02340000       0.00170000
N       -1.09450000      -0.80920000      -0.08680000
C       -0.52320000      -2.04370000       0.13380000
N        0.77050000      -2.03240000       0.33900000
O        1.09560000      -0.64970000       0.24980000
C       -1.32510000      -3.27880000       0.13310000
C       -0.73090000      -4.57290000      -0.39240000
C       -0.97300000      -4.41500000       1.07620000
H        0.85380000       1.75670000      -0.29970000
H       -0.83960000       1.74740000      -0.51690000
H       -2.37460000      -3.09480000      -0.05910000
H       -1.38440000      -5.22390000      -0.96230000
H        0.29260000      -4.52430000      -0.74500000
H       -0.11340000      -4.25910000       1.71730000
H       -1.79550000      -4.95560000       1.53090000
