19
Properties=species:S:1:pos:R:3 gdb_107755=T pbc="F F F"
O       -0.03260000       1.35820000      -0.01710000
C        0.03340000      -0.06350000      -0.00490000
C       -1.37010000      -0.59110000       0.02710000
C       -2.28880000      -0.38510000       1.26740000
C       -2.98600000      -1.67550000       0.84750000
C       -3.02690000      -1.68390000      -0.71370000
C       -2.34150000      -0.40080000      -1.17470000
C       -1.80960000      -2.13820000       0.04860000
O       -1.11420000      -3.31770000       0.12750000
H        0.86640000       1.69980000      -0.00750000
H        0.55530000      -0.44360000      -0.89990000
H        0.58730000      -0.43040000       0.87450000
H       -1.73800000      -0.51380000       2.20370000
H       -2.86690000       0.54380000       1.30310000
H       -3.68170000      -2.28880000       1.40570000
H       -3.75990000      -2.29170000      -1.22910000
H       -2.91960000       0.52860000      -1.19350000
H       -1.83230000      -0.53450000      -2.13450000
H       -0.78840000      -3.54270000      -0.75120000
