20
Properties=species:S:1:pos:R:3 gdb_93491=T pbc="F F F"
C       -0.01690000       1.58140000       0.01520000
C        0.01180000       0.05310000       0.04850000
C        0.65020000      -0.53390000      -1.22340000
C        0.88590000      -2.02480000      -1.16290000
N        0.77550000      -2.76480000      -2.18150000
O        1.34900000      -2.51990000       0.03760000
C        0.74220000      -2.01270000       1.23980000
C        0.76900000      -0.49120000       1.27550000
O        2.10550000      -0.00940000       1.34610000
H        1.00100000       1.98070000       0.03380000
H       -0.51700000       1.94690000      -0.88730000
H       -0.55120000       1.98340000       0.88240000
H       -1.01910000      -0.32120000       0.12260000
H        0.05820000      -0.31770000      -2.11410000
H        1.62910000      -0.05630000      -1.37110000
H        1.01890000      -3.72800000      -1.93840000
H       -0.28800000      -2.38540000       1.31660000
H        1.33070000      -2.43310000       2.05850000
H        0.27570000      -0.15130000       2.19410000
H        2.64580000      -0.57090000       0.77860000
