20
Properties=species:S:1:pos:R:3 gdb_78185=T pbc="F F F"
C       -1.28170000       0.77260000      -0.80210000
C       -0.56690000      -0.55540000      -0.91400000
C        0.56140000      -0.95040000      -1.78200000
C        1.67390000       0.08390000      -1.95470000
C        1.48150000       1.32450000      -2.81730000
C        1.73480000       0.13890000      -0.38630000
C        1.54560000       1.38500000       0.33230000
C        1.45650000       2.42040000       0.93890000
N        0.69200000      -0.95970000      -0.24940000
H       -0.63270000       1.63910000      -0.90200000
H       -2.05670000       0.82800000      -1.57480000
H       -1.77630000       0.84490000       0.17230000
H       -1.26550000      -1.38340000      -0.78660000
H        0.53680000      -1.88390000      -2.33780000
H        2.57800000      -0.42980000      -2.29480000
H        0.60070000       1.90590000      -2.54160000
H        2.35300000       1.98290000      -2.74010000
H        1.37490000       1.03600000      -3.86890000
H        2.67450000      -0.30060000      -0.03860000
H        1.35890000       3.33000000       1.47830000
