17
Properties=species:S:1:pos:R:3 gdb_94017=T pbc="F F F"
O       -0.38920000       1.51300000      -0.57540000
C       -0.07540000       0.18200000      -0.19780000
C       -1.33390000      -0.62990000       0.10310000
O       -2.12030000      -0.78460000      -1.07340000
C       -1.47500000      -1.24320000      -2.23850000
C       -1.81950000      -0.26480000      -3.37670000
O       -2.00190000       0.91110000      -3.20020000
C        0.03630000      -1.25910000      -2.19140000
C        0.69620000      -0.55920000      -1.27070000
H       -1.00720000       1.46490000      -1.32200000
H        0.52770000       0.26320000       0.71280000
H       -1.06650000      -1.60490000       0.53680000
H       -1.97700000      -0.09180000       0.80410000
H       -1.85920000      -2.23960000      -2.51250000
H       -1.84460000      -0.71110000      -4.39380000
H        0.54150000      -1.80800000      -2.98060000
H        1.78080000      -0.51710000      -1.26940000
