16
Properties=species:S:1:pos:R:3 gdb_108687=T pbc="F F F"
O        0.27490000       1.29380000       0.30310000
C        0.04950000      -0.06150000       0.00670000
C       -1.38590000      -0.49310000      -0.01160000
C       -2.50530000       0.24260000      -0.01930000
C       -3.72010000      -0.66360000      -0.04680000
O       -3.18930000      -1.97850000      -0.12980000
C       -1.77310000      -1.94880000      -0.03900000
C       -2.62070000       1.65580000      -0.03050000
N       -2.76880000       2.80460000      -0.07640000
H       -0.12880000       1.84430000      -0.37640000
H        0.51230000      -0.36290000      -0.95050000
H        0.57630000      -0.63300000       0.78230000
H       -4.33250000      -0.54810000       0.86010000
H       -4.36700000      -0.46650000      -0.91260000
H       -1.33320000      -2.47980000      -0.89730000
H       -1.43030000      -2.46800000       0.87160000
