18
Properties=species:S:1:pos:R:3 gdb_39144=T pbc="F F F"
C       -0.04340000       1.46670000       0.15040000
O        1.16670000       1.62600000      -0.62420000
C        1.45420000       0.21630000      -0.54800000
C        0.04370000      -0.06610000       0.03280000
O       -0.03850000      -0.74940000       1.26880000
C       -0.58060000      -2.05970000       1.09700000
C       -1.32310000      -2.02550000      -0.22070000
N       -2.26670000      -0.89220000      -0.29780000
C       -0.91890000      -0.77150000      -0.89330000
H        0.07300000       1.81710000       1.18320000
H       -0.90730000       1.95360000      -0.31340000
H        1.70220000      -0.21100000      -1.52770000
H        2.25460000      -0.01170000       0.16800000
H        0.21730000      -2.81690000       1.06060000
H       -1.22510000      -2.26690000       1.95710000
H       -1.52560000      -2.94420000      -0.76000000
H       -2.94010000      -1.07090000      -1.03950000
H       -0.80200000      -0.68140000      -1.96750000
