16
Properties=species:S:1:pos:R:3 gdb_15565=T pbc="F F F"
C        0.12330000       1.55990000      -0.10330000
C       -0.01640000       0.05070000       0.07370000
O        0.49740000      -0.62930000      -1.07370000
C        1.43890000      -1.62550000      -0.69500000
C        1.60310000      -1.47170000       0.78620000
C        0.77580000      -0.52480000       1.24040000
C        0.59040000      -0.08740000       2.57040000
C        0.39070000       0.31960000       3.68700000
H        1.17650000       1.83660000      -0.20780000
H       -0.41280000       1.88100000      -1.00050000
H       -0.29510000       2.08460000       0.76080000
H       -1.08410000      -0.19770000       0.19260000
H        1.06800000      -2.62910000      -0.96360000
H        2.38060000      -1.47520000      -1.24520000
H        2.28660000      -2.06310000       1.38070000
H        0.22740000       0.66700000       4.67710000
