17
Properties=species:S:1:pos:R:3 gdb_74423=T pbc="F F F"
C        0.04350000       1.53030000      -0.04840000
C       -0.02330000       0.04270000       0.04490000
C       -1.08470000      -0.76250000       0.20130000
C       -0.69950000      -2.22090000       0.15640000
C       -1.51570000      -3.27230000       0.85110000
O       -0.13610000      -2.56940000      -1.13170000
C        0.75310000      -2.25190000      -0.04180000
C        1.21590000      -0.79930000      -0.06330000
O        2.35410000      -0.40030000      -0.11330000
H        0.75370000       1.92980000       0.68310000
H        0.41130000       1.83760000      -1.03410000
H       -0.93370000       1.99030000       0.11650000
H       -2.11510000      -0.43840000       0.30310000
H       -2.53140000      -3.30310000       0.44160000
H       -1.06280000      -4.25700000       0.71730000
H       -1.59110000      -3.05960000       1.92240000
H        1.41850000      -3.04210000       0.29230000
