14
Properties=species:S:1:pos:R:3 gdb_4263=T pbc="F F F"
C       -0.02440000       1.52780000       0.06190000
C        0.00110000       0.03310000      -0.03910000
C       -0.02750000      -0.68260000      -1.18350000
C        0.00120000      -2.15040000      -1.17910000
O       -0.02360000      -2.81480000      -2.19530000
N        0.06070000      -2.77390000       0.09780000
C        0.08520000      -2.03480000       1.14490000
N        0.05890000      -0.66650000       1.15230000
H        0.87140000       1.90490000       0.56940000
H       -0.06860000       1.97480000      -0.93190000
H       -0.89590000       1.87040000       0.63230000
H       -0.07280000      -0.18420000      -2.14380000
H        0.13070000      -2.48990000       2.13430000
H        0.08180000      -0.17120000       2.02960000
