19
Properties=species:S:1:pos:R:3 gdb_106431=T pbc="F F F"
C        0.01250000       1.53750000      -0.00540000
C       -0.06270000       0.00660000      -0.02360000
C       -1.46900000      -0.51870000       0.05530000
C       -2.55990000      -0.32790000       1.15650000
C       -3.20140000      -1.12980000      -0.00310000
N       -2.51870000      -0.23910000      -1.02150000
C       -1.92520000      -2.01770000      -0.03140000
C       -1.61350000      -2.76160000      -1.23940000
N       -1.33760000      -3.40220000      -2.16130000
H        1.05140000       1.87340000      -0.06270000
H       -0.52250000       1.96840000      -0.85770000
H       -0.42160000       1.94930000       0.91170000
H        0.39330000      -0.38160000      -0.94180000
H        0.50940000      -0.40920000       0.81530000
H       -2.41810000      -0.82220000       2.12360000
H       -2.93100000       0.69280000       1.27730000
H       -4.23130000      -1.46320000      -0.12570000
H       -2.86650000       0.71830000      -0.90980000
H       -1.74230000      -2.62220000       0.85880000
