23
Properties=species:S:1:pos:R:3 gdb_117816=T pbc="F F F"
C        0.01980000       1.65610000       0.03290000
C        0.11180000       0.13320000      -0.10140000
C        0.68180000      -0.52400000       1.16250000
C        0.74210000      -2.06490000       1.15220000
C        1.47870000      -2.64110000      -0.07070000
C        1.46100000      -2.51990000       2.44260000
O        1.43520000      -3.93870000       2.51000000
C       -0.66620000      -2.66500000       1.20970000
O       -1.65090000      -2.06780000       1.56550000
H        1.00460000       2.09960000       0.21970000
H       -0.38240000       2.11160000      -0.87730000
H       -0.63390000       1.94020000       0.86480000
H       -0.88470000      -0.27410000      -0.30370000
H        0.73590000      -0.11370000      -0.96840000
H        1.69530000      -0.13870000       1.34000000
H        0.07150000      -0.21600000       2.01900000
H        2.47370000      -2.19220000      -0.16020000
H        1.60390000      -3.72150000       0.03350000
H        0.93790000      -2.44490000      -1.00070000
H        2.49490000      -2.13970000       2.42110000
H        0.95490000      -2.07240000       3.31100000
H        1.84660000      -4.21180000       3.33470000
H       -0.72650000      -3.73160000       0.90480000
