19
Properties=species:S:1:pos:R:3 gdb_78574=T pbc="F F F"
C       -0.17590000       1.62920000      -0.12120000
C       -0.05440000       0.11480000      -0.04670000
C        1.18300000      -0.58650000      -0.65340000
C        2.08710000      -0.24840000       0.58260000
C        2.54130000      -1.72490000       0.73780000
C        2.92840000      -2.20060000       2.05140000
C        3.24830000      -2.59250000       3.14310000
C        1.04840000      -1.80310000       0.32240000
C        0.65690000      -0.53920000       1.16060000
H        0.76450000       2.12570000       0.13950000
H       -0.45490000       1.95250000      -1.13020000
H       -0.94690000       1.99510000       0.56590000
H       -1.00600000      -0.36470000      -0.31060000
H        1.51320000      -0.63500000      -1.69320000
H        2.68990000       0.64640000       0.73660000
H        3.24620000      -2.06780000      -0.02870000
H        3.53190000      -2.93900000       4.10570000
H        0.43640000      -2.69320000       0.17100000
H        0.37960000      -0.53160000       2.21500000
