16
Properties=species:S:1:pos:R:3 gdb_67395=T pbc="F F F"
O       -0.11000000       1.42040000      -0.04620000
C        0.02080000       0.05600000      -0.02510000
C       -1.02840000      -1.00400000       0.08460000
C       -0.50030000      -1.73530000      -1.14450000
C        0.80230000      -0.86550000      -1.03070000
N        1.80680000      -1.50840000      -0.20020000
C        1.31740000      -1.70320000       1.08790000
O        1.82070000      -2.39470000       1.94440000
C        0.08380000      -0.84850000       1.17340000
H        0.66630000       1.81160000       0.37180000
H       -2.05880000      -0.91440000       0.40430000
H       -0.35890000      -2.81960000      -1.09370000
H       -1.08280000      -1.47550000      -2.03240000
H        1.21100000      -0.42900000      -1.94010000
H        2.42280000      -2.21460000      -0.57750000
H       -0.26390000      -0.51100000       2.14080000
