18
Properties=species:S:1:pos:R:3 gdb_72550=T pbc="F F F"
C        0.01020000       1.50570000       0.05930000
C        0.03120000       0.00010000      -0.03280000
C        0.66340000      -0.71580000      -1.24830000
C        0.28260000      -2.09060000      -0.68440000
C        0.92250000      -2.06270000       0.71300000
N        0.68020000      -0.65840000       1.14190000
O       -1.15210000      -1.95270000      -0.47970000
C       -1.36090000      -0.66090000      -0.07100000
O       -2.43710000      -0.21630000       0.19130000
H        1.02760000       1.90990000       0.09870000
H       -0.49700000       1.93880000      -0.80650000
H       -0.52760000       1.81810000       0.95780000
H        0.17500000      -0.50370000      -2.20270000
H        1.74150000      -0.55400000      -1.33110000
H        0.45680000      -2.98010000      -1.28570000
H        0.42600000      -2.77270000       1.38130000
H        1.98830000      -2.31260000       0.66950000
H        1.55830000      -0.18640000       1.33070000
