13
Properties=species:S:1:pos:R:3 gdb_5440=T pbc="F F F"
N        0.06840000       1.37550000       0.15370000
C       -0.00690000      -0.00760000       0.03850000
C       -1.10830000      -0.85780000       0.01050000
C       -0.60560000      -2.20440000      -0.01760000
C        0.75520000      -2.12950000      -0.01840000
N        1.10900000      -0.78720000       0.01780000
C       -2.44620000      -0.41200000      -0.00810000
N       -3.53380000      -0.00660000      -0.02440000
H        0.62720000       1.81940000      -0.56620000
H       -0.85350000       1.79440000       0.17270000
H       -1.20340000      -3.10070000      -0.04990000
H        1.51020000      -2.89690000      -0.04820000
H        2.04500000      -0.43400000       0.12000000
