20
Properties=species:S:1:pos:R:3 gdb_118798=T pbc="F F F"
C       -0.09540000       1.58050000      -0.14280000
C       -0.19310000       0.05810000      -0.26990000
C        1.06090000      -0.55470000      -0.91300000
C        0.95120000      -2.05300000      -1.12680000
C        0.92480000      -2.93190000       0.10540000
O        0.03650000      -2.45060000      -2.16240000
C        1.42880000      -2.66770000      -2.39380000
C        2.04860000      -1.88760000      -3.44350000
N        2.56900000      -1.28370000      -4.28070000
H        0.75580000       1.87400000       0.48160000
H        0.03580000       2.05110000      -1.12310000
H       -1.00000000       1.99760000       0.30970000
H       -0.35890000      -0.37910000       0.72190000
H       -1.06420000      -0.21030000      -0.87880000
H        1.24340000      -0.06850000      -1.87660000
H        1.93990000      -0.35330000      -0.28690000
H        0.07190000      -2.67590000       0.74050000
H        0.83660000      -3.98570000      -0.16890000
H        1.83750000      -2.79570000       0.69420000
H        1.74240000      -3.71060000      -2.38330000
