15
Properties=species:S:1:pos:R:3 gdb_3163=T pbc="F F F"
O        0.22870000       1.12460000      -0.56970000
C        0.03190000      -0.12400000       0.04450000
C       -0.02950000      -0.21720000       1.60330000
C       -1.28420000      -1.13300000       1.46990000
C       -1.40810000      -0.62590000       0.03130000
C       -2.54350000       0.01110000      -0.63300000
O       -2.04500000      -1.27350000      -1.04780000
H        1.17270000       1.26840000      -0.68440000
H        0.70300000      -0.89070000      -0.36880000
H        0.84120000      -0.62680000       2.11830000
H       -0.27990000       0.75890000       2.02500000
H       -1.03190000      -2.19670000       1.50210000
H       -2.12200000      -0.94650000       2.14410000
H       -3.52320000      -0.00200000      -0.15680000
H       -2.36240000       0.82600000      -1.33020000
