22
Properties=species:S:1:pos:R:3 gdb_61447=T pbc="F F F"
C       -0.29350000       1.57350000       0.01890000
C       -0.17370000       0.04340000       0.03570000
C        0.40130000      -0.48380000      -1.29190000
C        0.22860000      -2.00130000      -1.38440000
C        1.48730000      -2.84090000      -1.38890000
O       -0.87780000      -2.48760000      -1.43690000
N        0.62070000      -0.56130000       1.11990000
C        1.65520000       0.19570000       1.81700000
C        0.38630000      -0.18240000       2.50200000
H        0.65700000       2.05590000      -0.23200000
H       -1.02440000       1.87380000      -0.73780000
H       -0.63740000       1.97210000       0.97840000
H       -1.17780000      -0.38420000       0.13790000
H       -0.14880000      -0.03670000      -2.12720000
H        1.45340000      -0.19190000      -1.38070000
H        2.02680000      -2.66330000      -0.45180000
H        1.23910000      -3.89880000      -1.48380000
H        2.15090000      -2.53620000      -2.20660000
H        2.57590000      -0.34470000       2.02010000
H        1.79320000       1.24850000       1.58330000
H       -0.31640000       0.62090000       2.71610000
H        0.36150000      -1.00230000       3.21510000
