22
Properties=species:S:1:pos:R:3 gdb_117539=T pbc="F F F"
C       -0.07840000       1.57120000       0.08260000
C       -0.07920000       0.04260000       0.00030000
C        0.73590000      -0.48030000      -1.18820000
C        0.78190000      -2.02170000      -1.28500000
C       -0.57900000      -2.56810000      -1.36690000
N       -1.66720000      -2.95140000      -1.43600000
C        1.61580000      -2.55730000      -2.47260000
C        3.05700000      -2.04750000      -2.47850000
O        1.58030000      -3.97160000      -2.33720000
H        0.93840000       1.96540000       0.19070000
H       -0.51210000       2.01660000      -0.81940000
H       -0.66310000       1.92000000       0.93890000
H        0.32930000      -0.37670000       0.92920000
H       -1.10900000      -0.32360000      -0.07460000
H        0.32860000      -0.07510000      -2.12330000
H        1.76410000      -0.11330000      -1.10570000
H        1.23900000      -2.42520000      -0.37140000
H        1.11560000      -2.24770000      -3.40370000
H        3.11490000      -0.97150000      -2.66330000
H        3.55070000      -2.27300000      -1.52770000
H        3.61840000      -2.54690000      -3.27540000
H        1.94720000      -4.36360000      -3.13540000
