19
Properties=species:S:1:pos:R:3 gdb_22669=T pbc="F F F"
C       -0.27070000       1.54950000       0.10020000
C       -0.08550000       0.02770000       0.00550000
N       -1.31280000      -0.74350000      -0.00640000
C       -2.15270000      -0.88040000       1.19000000
C       -3.50330000      -1.30130000       0.61950000
C       -3.39470000      -1.22090000      -0.82400000
C       -2.11560000      -0.87540000      -1.11190000
N       -4.46050000      -1.65360000       1.39600000
O       -5.60490000      -2.00160000       0.64010000
H        0.70270000       2.05030000       0.09790000
H       -0.85150000       1.92550000      -0.74770000
H       -0.79040000       1.83560000       1.01960000
H        0.46630000      -0.21920000      -0.90900000
H        0.52840000      -0.32550000       0.84250000
H       -1.73850000      -1.62020000       1.88310000
H       -2.23200000       0.07490000       1.72580000
H       -4.17660000      -1.45800000      -1.52430000
H       -1.67390000      -0.72890000      -2.09090000
H       -6.22800000      -2.24940000       1.33010000
