16
Properties=species:S:1:pos:R:3 gdb_34243=T pbc="F F F"
N       -0.05230000      -1.13700000       0.06530000
C       -0.05090000       0.01870000       0.02840000
C       -0.07820000       1.45590000      -0.01360000
N       -1.03410000       2.22570000       0.82480000
C       -0.67040000       3.36230000      -0.09810000
C        0.74930000       3.64640000       0.41850000
C        1.29700000       2.28270000      -0.05880000
N        1.14430000       2.31970000      -1.54070000
C       -0.29320000       2.32780000      -1.27810000
H       -1.96950000       1.89260000       0.58720000
H       -1.38800000       4.17190000      -0.20720000
H        1.26540000       4.47430000      -0.07540000
H        0.75130000       3.79120000       1.49940000
H        2.22460000       1.88570000       0.34750000
H        1.51840000       3.16300000      -1.97510000
H       -1.00480000       2.11810000      -2.07610000
