17
Properties=species:S:1:pos:R:3 gdb_15519=T pbc="F F F"
C       -0.00190000       1.50910000       0.07260000
C        0.05170000       0.01970000       0.00650000
C        0.05030000      -0.74960000      -1.09790000
C        0.05990000      -2.23440000      -0.77890000
C        0.42010000      -2.25300000       0.72690000
C        0.06540000      -0.84090000       1.24940000
C       -0.00620000      -0.25910000      -2.42980000
N       -0.04910000       0.12050000      -3.52450000
H        0.86900000       1.90410000       0.61010000
H       -0.03200000       1.96130000      -0.92110000
H       -0.88680000       1.83870000       0.63150000
H       -0.92860000      -2.67040000      -0.97340000
H        0.77340000      -2.79180000      -1.39300000
H       -0.09330000      -3.04840000       1.27160000
H        1.49500000      -2.42250000       0.84050000
H        0.77300000      -0.47260000       2.00100000
H       -0.92570000      -0.81210000       1.72580000
