17
Properties=species:S:1:pos:R:3 gdb_106443=T pbc="F F F"
O        0.02290000       1.35060000       0.01810000
C       -0.02330000      -0.06230000       0.13540000
C       -1.44370000      -0.56190000       0.14840000
C       -2.58740000      -0.31890000       1.17630000
C       -3.18610000      -1.10240000      -0.02010000
N       -2.40340000      -0.24110000      -0.99500000
C       -1.94490000      -2.04200000       0.03510000
C       -1.58660000      -2.80080000      -1.15070000
N       -1.27810000      -3.45150000      -2.05490000
H       -0.16350000       1.57010000      -0.90060000
H        0.52740000      -0.55950000      -0.67550000
H        0.46740000      -0.31790000       1.08080000
H       -2.52620000      -0.81470000       2.15050000
H       -2.91340000       0.71890000       1.26910000
H       -4.21760000      -1.39630000      -0.21050000
H       -2.71510000       0.72980000      -0.89290000
H       -1.84510000      -2.64940000       0.93600000
