18
Properties=species:S:1:pos:R:3 gdb_37643=T pbc="F F F"
C       -0.06940000       1.56050000       0.05330000
C        1.48880000       1.54270000      -0.00250000
C        2.09500000       1.30140000       1.37120000
C        1.37480000       0.24210000       2.19630000
C        2.67370000      -0.08070000       1.47720000
N        1.95020000      -0.87050000       0.44270000
C        0.64790000      -0.66410000       1.19400000
C       -0.02770000       0.02410000      -0.03840000
C        1.42550000       0.08530000      -0.59520000
H       -0.52900000       2.01650000       0.93590000
H       -0.50910000       1.99590000      -0.84830000
H        1.99440000       2.32600000      -0.56970000
H        2.55970000       2.11110000       1.92230000
H        1.17060000       0.35550000       3.25370000
H        3.66180000      -0.34280000       1.83430000
H        0.18290000      -1.56250000       1.60590000
H       -0.84240000      -0.52840000      -0.50570000
H        1.72400000      -0.08780000      -1.62970000
