25
Properties=species:S:1:pos:R:3 gdb_117662=T pbc="F F F"
C       -0.07200000       1.41660000       0.00500000
O        0.01440000       0.01360000      -0.00320000
C       -1.25220000      -0.61510000       0.02440000
C       -1.07220000      -2.14520000       0.03770000
C       -0.33750000      -2.57130000      -1.24700000
C       -0.24640000      -2.54460000       1.27430000
C       -2.50010000      -2.76600000       0.07400000
C       -2.54830000      -4.29240000      -0.01920000
O       -3.24450000      -2.31590000       1.20800000
H        0.94780000       1.80980000      -0.00740000
H       -0.61050000       1.79910000      -0.87710000
H       -0.58680000       1.78950000       0.90480000
H       -1.81930000      -0.29920000       0.91150000
H       -1.83860000      -0.31750000      -0.86320000
H        0.56900000      -1.97470000      -1.37040000
H       -0.05000000      -3.62620000      -1.22000000
H       -0.96520000      -2.41420000      -2.13240000
H       -0.75810000      -2.26920000       2.20350000
H       -0.04340000      -3.61960000       1.29840000
H        0.71110000      -2.01960000       1.26650000
H       -3.05070000      -2.35530000      -0.78290000
H       -2.00970000      -4.76350000       0.81120000
H       -3.59020000      -4.62130000       0.02560000
H       -2.11290000      -4.66000000      -0.95160000
H       -2.91960000      -2.79280000       1.97880000
