21
Properties=species:S:1:pos:R:3 gdb_60296=T pbc="F F F"
C       -0.04080000       1.54960000      -0.01520000
C        0.01810000       0.01680000       0.04000000
C        0.88460000      -0.44670000       1.21980000
C       -1.40600000      -0.56470000       0.08620000
C       -1.46590000      -2.10220000      -0.05390000
C       -2.82720000      -2.61280000      -0.08910000
C       -3.96830000      -3.01640000      -0.11600000
C       -5.25070000      -3.47060000      -0.14650000
C       -6.38890000      -3.87380000      -0.17350000
H        0.96270000       1.98100000      -0.08910000
H       -0.62120000       1.89690000      -0.87620000
H       -0.51040000       1.95570000       0.88870000
H        0.49220000      -0.33480000      -0.88840000
H        0.43750000      -0.14300000       2.17410000
H        1.01330000      -1.53300000       1.24210000
H        1.88350000      -0.00180000       1.16630000
H       -1.89370000      -0.27350000       1.02510000
H       -2.00260000      -0.12390000      -0.72040000
H       -0.94160000      -2.40520000      -0.97090000
H       -0.92810000      -2.57940000       0.77460000
H       -7.38940000      -4.22740000      -0.19720000
