18
Properties=species:S:1:pos:R:3 gdb_57115=T pbc="F F F"
O       -0.33240000       1.27190000       0.06890000
C        0.01970000      -0.09840000       0.10560000
C        0.55740000      -0.53110000      -1.20140000
N        1.01350000      -0.84460000      -2.21610000
C        1.00350000      -0.45840000       1.24280000
C        0.45040000      -0.00010000       2.61730000
C       -0.00700000      -1.32100000       3.28760000
O        0.00840000      -2.31140000       2.26600000
C        1.09950000      -1.98580000       1.42390000
H        0.45990000       1.78400000      -0.13200000
H       -0.91830000      -0.63640000       0.28180000
H        1.97790000      -0.01440000       1.01680000
H        1.22050000       0.50060000       3.20840000
H       -0.36990000       0.70770000       2.48390000
H        0.68100000      -1.60270000       4.09930000
H       -1.01960000      -1.27960000       3.69570000
H        1.00020000      -2.55610000       0.49660000
H        2.05960000      -2.25220000       1.89430000
