13
Properties=species:S:1:pos:R:3 gdb_128572=T pbc="F F F"
C       -0.02240000       1.42890000       0.00860000
O       -0.03340000      -0.00840000       0.00490000
C       -1.19580000      -0.65010000       0.01240000
C       -1.24900000      -2.00460000       0.00920000
C       -2.53070000      -2.65000000       0.01750000
O       -2.78770000      -3.81920000       0.01670000
O       -3.62580000      -1.74500000       0.02870000
N       -3.48380000      -0.36560000       0.03130000
N       -2.34460000       0.13690000       0.02350000
H        1.03330000       1.69920000       0.00110000
H       -0.52190000       1.82650000      -0.87760000
H       -0.50810000       1.82190000       0.90430000
H       -0.35610000      -2.61450000       0.00050000
