17
Properties=species:S:1:pos:R:3 gdb_54320=T pbc="F F F"
N       -0.02500000       1.28200000      -0.05800000
C        0.08570000      -0.06730000       0.05210000
O        1.12730000      -0.66700000       0.23030000
C       -1.24330000      -0.80680000      -0.02090000
C       -2.24500000      -0.50870000       1.02140000
O       -2.39470000       0.00250000      -0.30930000
C       -1.18410000      -2.14260000      -0.70160000
C       -2.42550000      -2.82500000      -1.12910000
N       -1.52140000      -2.23530000      -2.13440000
H        0.81730000       1.83260000      -0.07420000
H       -0.90000000       1.68630000      -0.34780000
H       -2.95520000      -1.28330000       1.30130000
H       -2.02630000       0.23940000       1.78060000
H       -0.31320000      -2.72210000      -0.41370000
H       -2.46960000      -3.91010000      -1.12780000
H       -3.37140000      -2.32390000      -0.94360000
H       -1.91910000      -1.34680000      -2.43510000
