16
Properties=species:S:1:pos:R:3 gdb_39539=T pbc="F F F"
C       -0.06270000       1.53770000       0.01080000
C        1.40600000       1.90760000       0.04530000
C        2.20610000       0.84310000      -0.07680000
C        1.43830000      -0.43080000      -0.17020000
C        0.67820000      -0.78890000       1.08320000
O       -0.00380000      -2.03690000       1.06910000
C       -0.96700000      -1.91290000       0.11520000
N       -1.07620000      -0.80760000      -0.50640000
C       -0.01980000       0.02350000       0.00220000
H       -0.61710000       1.93060000       0.87150000
H       -0.56310000       1.92310000      -0.88780000
H        1.74310000       2.93180000       0.15350000
H        3.28950000       0.87130000      -0.09440000
H        1.72110000      -1.22170000      -0.85790000
H        0.98480000      -0.47320000       2.07350000
H       -1.57580000      -2.79560000      -0.03390000
