17
Properties=species:S:1:pos:R:3 gdb_48992=T pbc="F F F"
O       -0.75720000       1.02440000       0.46650000
C        0.31130000       0.85560000      -0.06300000
C        1.43630000       1.85320000      -0.01120000
C        1.60590000       2.67560000       1.27590000
O        2.47540000       3.74990000       0.85650000
C        2.74890000       3.51240000      -0.52870000
C        3.61250000       2.24770000      -0.63070000
O        2.67850000       1.19690000      -0.28870000
C        1.40730000       2.99070000      -1.06320000
H        0.54830000      -0.05340000      -0.65640000
H        0.65580000       3.07340000       1.64660000
H        2.08910000       2.08240000       2.05860000
H        3.16940000       4.41510000      -0.97070000
H        4.01260000       2.07370000      -1.63730000
H        4.43490000       2.26650000       0.09090000
H        1.43870000       2.61390000      -2.08720000
H        0.58620000       3.69470000      -0.92690000
