23
Properties=species:S:1:pos:R:3 gdb_63813=T pbc="F F F"
C       -0.34930000       1.60720000      -0.01050000
C       -0.03890000       0.11290000       0.00600000
C       -1.34340000      -0.68830000      -0.08140000
C        1.01380000      -0.44210000      -1.02950000
C        1.77400000      -1.16210000       0.12720000
C        3.00840000      -0.48870000       0.77630000
C        2.92960000       1.00500000       0.73850000
C        2.08100000       0.27010000       1.74440000
C        0.85080000      -0.46580000       1.16220000
H        0.54460000       2.22560000       0.09060000
H       -0.84950000       1.88920000      -0.94490000
H       -1.02330000       1.87010000       0.81350000
H       -1.87490000      -0.46960000      -1.01500000
H       -1.15360000      -1.76700000      -0.05220000
H       -2.01230000      -0.44460000       0.75230000
H        0.58350000      -1.11350000      -1.77770000
H        1.59350000       0.31940000      -1.55770000
H        1.82660000      -2.24900000       0.07280000
H        3.94020000      -1.00110000       0.98600000
H        3.78340000       1.51110000       1.17980000
H        2.51380000       1.53560000      -0.10990000
H        2.21600000       0.45660000       2.80370000
H        0.32590000      -1.05330000       1.91880000
