17
Properties=species:S:1:pos:R:3 gdb_12357=T pbc="F F F"
C       -0.13320000       1.52980000      -0.01210000
C        0.05000000       0.01380000       0.01810000
C        0.75320000      -0.50700000      -1.24000000
N        0.95370000      -1.94920000      -1.15310000
C        1.43560000      -2.44820000       0.01990000
C        1.42050000      -1.76320000       1.19110000
C        0.78910000      -0.45570000       1.29140000
O        0.76550000       0.20880000       2.31390000
H        0.82670000       2.03680000      -0.16080000
H       -0.80780000       1.83210000      -0.81940000
H       -0.53920000       1.87180000       0.94090000
H       -0.93890000      -0.46860000       0.06870000
H        0.16200000      -0.28450000      -2.13320000
H        1.72530000       0.00540000      -1.34410000
H        1.23390000      -2.42090000      -1.99770000
H        1.82790000      -3.45990000      -0.03640000
H        1.82100000      -2.20730000       2.09310000
