19
Properties=species:S:1:pos:R:3 gdb_86710=T pbc="F F F"
C        0.10480000       1.57720000      -0.01850000
C        0.03720000       0.04920000       0.02890000
C        0.70680000      -0.64350000      -1.18720000
C        1.20240000      -2.03050000      -0.68830000
C        2.44860000      -2.48430000      -1.41660000
O        2.53930000      -3.49370000      -2.06690000
C        1.44330000      -1.79450000       0.79970000
O        2.18240000      -0.59510000       1.07530000
C        0.75300000      -0.57020000       1.21580000
H        1.14670000       1.91260000      -0.00840000
H       -0.36940000       1.96490000      -0.92560000
H       -0.40410000       2.02530000       0.84120000
H       -1.01430000      -0.26440000       0.09070000
H        0.03250000      -0.73780000      -2.04090000
H        1.56440000      -0.04610000      -1.51290000
H        0.43690000      -2.80390000      -0.81160000
H        3.30960000      -1.78630000      -1.30620000
H        1.63920000      -2.62980000       1.46680000
H        0.39090000      -0.41820000       2.23000000
