20
Properties=species:S:1:pos:R:3 gdb_64351=T pbc="F F F"
C       -0.02090000       1.55670000       0.02470000
C       -0.01080000       0.02860000      -0.02350000
O       -1.35240000      -0.48000000      -0.04150000
C        0.73880000      -0.50540000      -1.26580000
N        0.74000000      -1.96180000      -1.35320000
C        1.36970000      -2.57980000      -0.18100000
C        0.81210000      -2.08460000       1.15460000
O        0.57070000      -2.82680000       2.07650000
C        0.61820000      -0.57420000       1.24550000
H        0.99530000       1.96230000       0.05800000
H       -0.51230000       1.96860000      -0.86540000
H       -0.56380000       1.90750000       0.90720000
H       -1.82800000      -0.03830000      -0.75410000
H        0.27050000      -0.10030000      -2.17210000
H        1.77800000      -0.15010000      -1.25660000
H       -0.23000000      -2.26490000      -1.38560000
H        1.26510000      -3.66640000      -0.22430000
H        2.44570000      -2.34900000      -0.20640000
H        1.61180000      -0.12780000       1.38830000
H        0.01290000      -0.34640000       2.12620000
