15
Properties=species:S:1:pos:R:3 gdb_132023=T pbc="F F F"
N        0.05140000       1.39150000       0.03220000
C        0.00840000       0.00630000       0.04030000
C       -1.13340000      -0.71590000       0.07560000
F       -2.34660000      -0.15380000       0.04320000
N       -1.16480000      -2.08840000       0.14080000
C        0.00560000      -2.79130000       0.17720000
C        1.19830000      -2.14940000       0.13390000
C        1.29590000      -0.70350000       0.04640000
N        2.36620000       0.02180000      -0.03510000
H        0.97390000       1.70480000      -0.25180000
H       -0.71110000       1.85240000      -0.44120000
H       -2.06160000      -2.54210000       0.17920000
H       -0.09330000      -3.86710000       0.23820000
H        2.11170000      -2.73240000       0.15280000
H        3.20190000      -0.56260000      -0.03390000
