19
Properties=species:S:1:pos:R:3 gdb_111455=T pbc="F F F"
C        0.01110000       1.50570000      -0.03650000
C       -0.01280000       0.01040000      -0.04820000
C       -0.09890000      -0.77810000      -1.12830000
C       -0.03410000      -2.21620000      -0.74750000
O        1.20810000      -2.59170000      -0.09310000
C        0.07450000      -2.25920000       0.71600000
C        0.07400000      -0.82140000       1.23500000
C        1.29800000      -0.54090000       2.11250000
O        1.15770000       0.74990000       2.69190000
H        0.93620000       1.88390000       0.40870000
H       -0.08930000       1.90930000      -1.04780000
H       -0.80190000       1.90530000       0.58200000
H       -0.17560000      -0.43110000      -2.15210000
H       -0.48710000      -3.00310000      -1.34260000
H       -0.31350000      -3.06810000       1.33020000
H       -0.81660000      -0.64920000       1.85620000
H        1.35920000      -1.31480000       2.89410000
H        2.20420000      -0.61700000       1.49710000
H        1.96570000       0.95120000       3.17280000
