21
Properties=species:S:1:pos:R:3 gdb_118558=T pbc="F F F"
C        1.23400000       0.78660000       0.91790000
O        0.79890000      -0.53440000       0.69090000
C       -0.57760000      -0.61550000       0.39390000
C       -0.95840000      -2.07280000       0.13060000
C       -2.48520000      -2.22790000       0.06120000
C       -2.91560000      -3.67670000      -0.03130000
O       -3.83210000      -4.15130000       0.59040000
O       -0.45620000      -2.54870000      -1.10660000
C        0.88160000      -3.01840000      -1.08760000
H        2.30080000       0.74460000       1.14920000
H        1.08510000       1.42330000       0.03200000
H        0.70330000       1.24780000       1.76550000
H       -1.17290000      -0.22240000       1.23580000
H       -0.82230000      -0.01620000      -0.49900000
H       -0.55540000      -2.68080000       0.95730000
H       -2.98370000      -1.77030000       0.91930000
H       -2.83000000      -1.72000000      -0.85070000
H       -2.31410000      -4.28830000      -0.73660000
H        1.59440000      -2.21560000      -0.87790000
H        1.01490000      -3.81050000      -0.33540000
H        1.07800000      -3.43790000      -2.07760000
