17
Properties=species:S:1:pos:R:3 gdb_10198=T pbc="F F F"
C        0.18510000       1.41180000      -0.09900000
O       -0.15900000       0.05820000       0.14630000
C        0.58630000      -0.55290000       1.17420000
C       -0.04040000      -1.91890000       1.47440000
C       -1.47450000      -1.79660000       2.00160000
O       -2.01880000      -3.05730000       2.34950000
C        2.01080000      -0.69860000       0.79050000
N        3.11930000      -0.80510000       0.48210000
H        1.22510000       1.50960000      -0.43680000
H       -0.48290000       1.76700000      -0.88560000
H        0.04400000       2.02900000       0.80040000
H        0.56210000       0.07090000       2.08460000
H       -0.02550000      -2.51250000       0.55300000
H        0.57370000      -2.44240000       2.21340000
H       -1.48000000      -1.20510000       2.92470000
H       -2.09810000      -1.26780000       1.26950000
H       -2.17040000      -3.55040000       1.53700000
