20
Properties=species:S:1:pos:R:3 gdb_61523=T pbc="F F F"
C       -1.03920000      -2.34390000       0.22090000
C        0.29200000      -2.24270000       0.96770000
O        0.79850000      -0.94210000       0.74660000
C        2.14050000      -0.69660000       1.12450000
C        3.17750000      -1.47450000       0.34530000
C        2.38600000       0.74210000       1.46200000
C        2.39520000      -0.30340000       2.55930000
C        0.09960000      -2.53440000       2.40880000
N       -0.07030000      -2.77670000       3.52600000
H       -0.86260000      -2.17010000      -0.84270000
H       -1.48250000      -3.33310000       0.35740000
H       -1.73500000      -1.58820000       0.59200000
H        0.98260000      -3.00400000       0.57940000
H        3.02770000      -1.34260000      -0.73150000
H        4.18020000      -1.11890000       0.59660000
H        3.15290000      -2.54660000       0.56920000
H        3.32410000       1.18770000       1.15030000
H        1.52800000       1.40270000       1.41680000
H        1.55390000      -0.31590000       3.24010000
H        3.34260000      -0.58530000       3.00570000
