18
Properties=species:S:1:pos:R:3 gdb_49076=T pbc="F F F"
O       -0.69950000       0.88990000      -0.66990000
C        0.09210000       1.15860000       0.19920000
C        1.35980000       1.93380000      -0.00500000
C        2.65360000       1.23150000       0.41950000
C        3.64190000       2.41140000       0.22420000
C        2.65470000       3.46650000      -0.24380000
C        1.59820000       2.87150000      -1.21620000
C        0.60820000       3.84150000      -0.55910000
N        1.40000000       3.35010000       0.66240000
H       -0.06650000       0.82410000       1.25010000
H        2.60070000       0.88720000       1.45640000
H        2.87340000       0.36890000      -0.21550000
H        4.13900000       2.70460000       1.15240000
H        4.41100000       2.20560000      -0.52540000
H        3.00260000       4.49120000      -0.38690000
H        1.71160000       2.59500000      -2.26920000
H        0.74160000       4.91020000      -0.74660000
H       -0.45000000       3.57620000      -0.54630000
