18
Properties=species:S:1:pos:R:3 gdb_108783=T pbc="F F F"
O        0.03720000       1.41970000      -0.13140000
C        0.00050000       0.01480000      -0.02160000
C       -1.41590000      -0.47560000       0.05950000
C       -2.47440000       0.34150000       0.08120000
C       -3.86980000      -0.16020000       0.08560000
O       -4.83560000       0.57100000      -0.05460000
N       -4.00080000      -1.52700000       0.21890000
C       -2.92290000      -2.34840000       0.74840000
C       -1.60610000      -1.97370000       0.06690000
H        0.95660000       1.69860000      -0.15130000
H        0.48940000      -0.47600000      -0.88330000
H        0.54200000      -0.33760000       0.87510000
H       -2.36260000       1.41680000       0.04120000
H       -4.95250000      -1.82750000       0.37280000
H       -2.81560000      -2.21800000       1.83750000
H       -3.16000000      -3.40090000       0.56750000
H       -1.60080000      -2.34260000      -0.96870000
H       -0.77420000      -2.47030000       0.57990000
