12
Properties=species:S:1:pos:R:3 gdb_24927=T pbc="F F F"
N       -0.04510000       1.26000000       0.02250000
C       -0.02580000       0.00290000       0.03250000
N       -1.13390000      -0.84850000       0.06840000
C       -0.65460000      -2.15310000      -0.09210000
C        0.67770000      -2.06200000      -0.11180000
O        1.23720000      -3.27790000      -0.02900000
C        0.11360000      -4.09310000       0.00640000
N       -1.03230000      -3.47080000      -0.00610000
O        1.15650000      -0.80300000      -0.00160000
H        0.88990000       1.65480000      -0.01180000
H       -2.03220000      -0.49010000      -0.21010000
H        0.30580000      -5.15210000      -0.00480000
