18
Properties=species:S:1:pos:R:3 gdb_42432=T pbc="F F F"
O       -0.07820000       0.13250000      -0.56290000
C        0.00920000       1.31160000      -0.28110000
C        1.33700000       1.98420000       0.00940000
C        2.53880000       1.04500000      -0.17790000
C        3.80470000       1.70080000       0.12300000
C        4.83510000       2.26520000       0.37690000
C       -1.21280000       2.17270000      -0.20300000
C       -2.17230000       2.06440000      -1.35140000
N       -2.50880000       1.49410000      -0.05640000
H        1.42890000       2.87180000      -0.62980000
H        1.30670000       2.37210000       1.03620000
H        2.40660000       0.16300000       0.45810000
H        2.54440000       0.66590000      -1.20610000
H        5.75440000       2.74800000       0.59810000
H       -1.11610000       3.12200000       0.31560000
H       -2.74000000       2.94440000      -1.63970000
H       -1.89330000       1.39450000      -2.16010000
H       -2.31550000       0.49180000      -0.08550000
