15
Properties=species:S:1:pos:R:3 gdb_30935=T pbc="F F F"
C       -0.01200000       1.41170000      -0.38360000
C       -0.11930000      -0.04170000      -0.11970000
C       -1.13400000      -0.89610000       0.03500000
C       -2.62420000      -0.77270000      -0.00990000
O       -3.05540000       0.35520000      -0.74870000
O       -0.61590000      -2.16090000       0.28810000
C        0.74760000      -2.05790000       0.28400000
O        1.51520000      -2.94630000       0.46760000
O        1.06720000      -0.75580000       0.02740000
H        0.55540000       1.60400000      -1.30110000
H       -1.01230000       1.83410000      -0.48370000
H        0.50970000       1.91780000       0.43610000
H       -3.03680000      -1.71480000      -0.40070000
H       -3.03360000      -0.64380000       0.99870000
H       -2.80050000       0.21900000      -1.66780000
