19
Properties=species:S:1:pos:R:3 gdb_111308=T pbc="F F F"
C       -0.16630000       1.56770000      -0.19270000
C       -0.00800000       0.06560000      -0.02200000
O       -1.25420000      -0.58060000       0.16660000
C        0.72590000      -0.69180000      -1.14520000
O        2.06670000      -0.19830000      -1.18760000
C        1.73710000      -1.20860000      -0.21700000
C        1.10230000      -0.48510000       0.98340000
C        1.99620000       0.46720000       1.76540000
O        2.94540000      -0.22970000       2.56450000
H        0.78160000       2.02910000      -0.47880000
H       -0.90820000       1.77440000      -0.97020000
H       -0.50850000       2.03840000       0.73710000
H       -1.68530000      -0.18310000       0.93090000
H        0.30110000      -1.10930000      -2.05090000
H        2.30840000      -2.12930000      -0.25110000
H        0.62410000      -1.19790000       1.66140000
H        2.49070000       1.16720000       1.07880000
H        1.39750000       1.05900000       2.46650000
H        3.58920000      -0.62810000       1.97040000
