20
Properties=species:S:1:pos:R:3 gdb_12110=T pbc="F F F"
O        0.26770000       1.35230000       0.05420000
C        0.04720000      -0.03800000       0.03690000
C       -1.40260000      -0.44240000       0.24640000
C       -2.35510000       0.17890000      -0.75690000
C       -2.55830000      -0.43380000      -2.12180000
C       -3.66160000      -0.49170000      -1.09370000
C        0.95860000      -0.86350000      -0.83860000
C        1.14650000      -0.83330000       0.66800000
H       -0.05890000       1.70670000      -0.78000000
H       -1.48010000      -1.53550000       0.19910000
H       -1.70420000      -0.14660000       1.26010000
H       -2.39070000       1.26470000      -0.71460000
H       -2.68350000       0.22320000      -2.97570000
H       -2.02940000      -1.35370000      -2.34750000
H       -3.87150000      -1.45040000      -0.63010000
H       -4.53850000       0.12860000      -1.24220000
H        0.57250000      -1.76900000      -1.29410000
H        1.68640000      -0.32740000      -1.43750000
H        1.98990000      -0.27160000       1.05200000
H        0.88400000      -1.71620000       1.24100000
