20
Properties=species:S:1:pos:R:3 gdb_57291=T pbc="F F F"
C       -0.75280000       0.97830000      -0.42000000
C        0.14160000      -0.12510000       0.17830000
C        0.96950000       0.41600000       1.36010000
O       -0.66930000      -1.22600000       0.61340000
C        1.04150000      -0.65320000      -0.85340000
C        1.79890000      -1.04920000      -1.70330000
C        2.69460000      -1.51330000      -2.72450000
C        2.33690000      -2.71850000      -3.53250000
N        2.32030000      -1.39280000      -4.15690000
H       -0.15310000       1.80740000      -0.80520000
H       -1.35530000       0.56980000      -1.23430000
H       -1.42550000       1.37160000       0.35120000
H        0.29970000       0.80980000       2.13370000
H        1.57100000      -0.38640000       1.79230000
H        1.63390000       1.22350000       1.04070000
H       -1.26240000      -0.88600000       1.29310000
H        3.74880000      -1.31780000      -2.54500000
H        3.12970000      -3.37770000      -3.87440000
H        1.39490000      -3.20750000      -3.30370000
H        1.36180000      -1.05590000      -4.21290000
