16
Properties=species:S:1:pos:R:3 gdb_125678=T pbc="F F F"
C       -0.10350000       1.49390000       0.12160000
C       -0.02900000       0.00260000       0.09480000
N       -0.17760000      -0.69230000      -1.03160000
N       -0.04330000      -1.98300000      -0.67220000
C        0.19710000      -2.15270000       0.65160000
C        0.20570000      -0.87720000       1.17820000
O        0.44660000      -0.47630000       2.46660000
C       -0.24140000      -1.09820000       3.45960000
N        0.07690000      -0.88900000       4.65950000
H        0.84240000       1.93340000       0.45490000
H       -0.33010000       1.86940000      -0.87810000
H       -0.87920000       1.84170000       0.81180000
H       -0.12440000      -2.69510000      -1.37690000
H        0.35330000      -3.12080000       1.09810000
H       -1.04610000      -1.73890000       3.07790000
H       -0.54770000      -1.40100000       5.27900000
