15
Properties=species:S:1:pos:R:3 gdb_130941=T pbc="F F F"
O       -0.25280000       0.00260000      -0.08950000
C       -0.02340000       1.17660000       0.03760000
C        1.33660000       1.81640000      -0.13050000
C        1.30380000       2.95730000      -1.17180000
C        2.58940000       3.71330000      -1.23330000
C        3.52040000       3.84920000      -2.21340000
O        4.50630000       4.63130000      -1.77960000
N        4.16050000       5.00000000      -0.44350000
N        3.06210000       4.45690000      -0.16810000
H       -0.83700000       1.89540000       0.29650000
H        1.63100000       2.24120000       0.83870000
H        2.06220000       1.04580000      -0.40310000
H        1.07860000       2.55110000      -2.16290000
H        0.49160000       3.65110000      -0.92160000
H        3.60060000       3.46550000      -3.21730000
