22
Properties=species:S:1:pos:R:3 gdb_19148=T pbc="F F F"
C        0.10420000       1.60640000       0.07470000
C       -0.02640000       0.09380000      -0.13340000
C       -1.43020000      -0.50110000      -0.03950000
C       -2.51070000       0.19740000       0.75910000
C       -2.57340000       0.19080000      -0.74970000
C       -1.50910000      -2.01000000      -0.02560000
C       -0.49460000      -2.91370000      -0.68350000
C       -0.61820000      -2.88640000       0.82170000
H        1.14370000       1.91400000      -0.07490000
H       -0.50710000       2.17770000      -0.63090000
H       -0.18160000       1.90500000       1.08760000
H        0.38740000      -0.15880000      -1.11820000
H        0.62010000      -0.40320000       0.60120000
H       -3.21220000      -0.42430000       1.30570000
H       -2.28190000       1.13550000       1.25090000
H       -2.37920000       1.12320000      -1.26850000
H       -3.31950000      -0.43100000      -1.23360000
H       -2.53520000      -2.36350000      -0.09770000
H       -0.85520000      -3.78480000      -1.21970000
H        0.39200000      -2.46710000      -1.11870000
H        0.18540000      -2.42360000       1.38400000
H       -1.06810000      -3.73720000       1.32180000
