15
Properties=species:S:1:pos:R:3 gdb_131370=T pbc="F F F"
O        0.10780000       1.35100000       0.01500000
C        0.07990000       0.00320000       0.06280000
N        0.11340000      -0.73370000      -1.04290000
N        0.06940000      -2.02710000      -0.59660000
C        0.01060000      -2.07700000       0.74720000
C        0.01470000      -0.79480000       1.22310000
C       -0.05010000      -0.82790000       2.71410000
O       -0.09130000      -2.23970000       3.02900000
C       -0.05630000      -3.06820000       1.86210000
H        0.15280000       1.59900000      -0.91740000
H        0.08420000      -2.77130000      -1.27060000
H        0.82550000      -0.38240000       3.20570000
H       -0.94660000      -0.34780000       3.12960000
H       -0.95580000      -3.70110000       1.82910000
H        0.81830000      -3.73440000       1.90580000
