14
Properties=species:S:1:pos:R:3 gdb_75871=T pbc="F F F"
O        0.05700000       1.48060000      -0.02010000
C       -0.00960000       0.07210000      -0.03420000
C        0.62070000      -0.49940000       1.26000000
O        1.71410000      -0.26080000       1.70550000
N       -0.35800000      -1.29800000       1.84600000
C       -1.53960000      -1.22890000       1.12630000
C       -1.42510000      -0.45020000       0.02890000
C       -2.46360000      -0.25890000      -0.96770000
O       -2.31960000       0.33140000      -2.01600000
H        0.97020000       1.71110000       0.19540000
H        0.51950000      -0.34990000      -0.90420000
H       -0.24370000      -1.73660000       2.74650000
H       -2.40410000      -1.78970000       1.45780000
H       -3.44070000      -0.72150000      -0.69450000
