21
Properties=species:S:1:pos:R:3 gdb_39583=T pbc="F F F"
C       -0.01470000       1.63420000       0.13750000
C        1.47070000       1.94690000       0.03630000
C        2.22030000       0.88980000       0.36130000
C        1.33620000      -0.26080000       0.79170000
C        1.67000000      -1.72920000       0.54630000
C        0.54210000      -2.59590000       1.16330000
C       -0.84260000      -1.98850000       1.06540000
C       -1.10350000      -0.76620000       0.59570000
C        0.01580000       0.09250000       0.08080000
H       -0.42380000       1.99910000       1.09240000
H       -0.61380000       2.08670000      -0.65990000
H        1.84790000       2.92860000      -0.22840000
H        3.30380000       0.87330000       0.40940000
H        1.16950000      -0.15350000       1.87890000
H        1.74220000      -1.91590000      -0.53250000
H        2.63470000      -2.01160000       0.98250000
H        0.53670000      -3.59070000       0.69910000
H        0.76060000      -2.78050000       2.22590000
H       -1.65840000      -2.61460000       1.42140000
H       -2.12670000      -0.40140000       0.54440000
H        0.16960000      -0.14790000      -0.98380000
