21
Properties=species:S:1:pos:R:3 gdb_52993=T pbc="F F F"
C        0.02540000       1.46760000      -0.02400000
C        0.00000000       0.01240000      -0.01660000
C       -0.02540000      -1.19400000      -0.01470000
C       -0.02630000      -2.61760000       0.02100000
C       -0.42620000      -3.46420000      -1.17140000
C       -1.21060000      -3.61410000       0.09280000
C       -0.44200000      -4.48860000       1.08680000
C        0.74880000      -3.46950000       1.05620000
C        2.14890000      -3.95310000       0.70500000
H        0.87020000       1.85080000       0.55960000
H        0.12300000       1.86330000      -1.04150000
H       -0.88960000       1.88890000       0.40840000
H       -0.91170000      -2.90860000      -1.96620000
H        0.21960000      -4.26810000      -1.51770000
H       -2.26570000      -3.37550000       0.14430000
H       -0.91020000      -4.55690000       2.07070000
H       -0.21810000      -5.50260000       0.73680000
H        0.77920000      -2.92320000       2.00310000
H        2.16420000      -4.50700000      -0.23920000
H        2.83980000      -3.10860000       0.60890000
H        2.53830000      -4.61770000       1.48430000
