13
Properties=species:S:1:pos:R:3 gdb_20741=T pbc="F F F"
C       -0.03560000       1.50000000      -0.02360000
C       -0.01140000       0.00960000       0.00640000
N       -0.02700000      -0.73490000      -1.09790000
N        0.00440000      -1.98090000      -0.63370000
N        0.03930000      -2.13230000       0.67670000
C        0.03070000      -0.86580000       1.12400000
C        0.05930000      -0.52760000       2.49610000
C        0.08260000      -0.19030000       3.65100000
H        0.85560000       1.91800000       0.45570000
H       -0.07620000       1.85310000      -1.05540000
H       -0.90450000       1.89040000       0.51600000
H        0.00130000      -2.77460000      -1.25380000
H        0.10370000       0.09390000       4.67390000
