18
Properties=species:S:1:pos:R:3 gdb_9293=T pbc="F F F"
O        0.37420000       0.49800000       0.89800000
C       -0.14190000       0.29310000      -0.40580000
C       -1.49470000      -0.43450000      -0.41330000
O       -2.00110000      -0.51630000      -1.74070000
C       -1.41840000      -1.80560000       0.26530000
C       -2.79100000      -2.48740000       0.37540000
C       -2.67880000      -3.92590000       0.81780000
O       -3.25090000      -4.41150000       1.75920000
H       -0.16610000       1.16720000       1.33040000
H       -0.24610000       1.23370000      -0.96490000
H        0.60320000      -0.31990000      -0.93030000
H       -2.22520000       0.18850000       0.12160000
H       -1.38060000      -1.03960000      -2.26150000
H       -0.73150000      -2.44150000      -0.31440000
H       -0.96380000      -1.68120000       1.25330000
H       -3.45170000      -1.95800000       1.06810000
H       -3.25880000      -2.47570000      -0.61920000
H       -1.99610000      -4.54350000       0.18510000
