23
Properties=species:S:1:pos:R:3 gdb_100949=T pbc="F F F"
C        0.00510000       1.41750000       0.08820000
O        0.25030000       0.03600000      -0.03080000
C        0.67120000      -0.60870000       1.16950000
C       -0.50850000      -0.79310000       2.12940000
C        1.32760000      -1.94870000       0.77700000
C        2.18880000      -1.78180000      -0.47940000
O        2.80130000      -3.04230000      -0.77890000
C        2.16560000      -2.51410000       1.94490000
O        2.47480000      -3.88260000       1.80430000
H        0.87300000       1.94900000       0.50970000
H       -0.18390000       1.79740000      -0.91920000
H       -0.87130000       1.64310000       0.71220000
H        1.43720000       0.02490000       1.65290000
H       -1.29680000      -1.37340000       1.64020000
H       -0.20790000      -1.31660000       3.04030000
H       -0.92820000       0.17020000       2.43200000
H        0.53890000      -2.67890000       0.55480000
H        1.57340000      -1.44480000      -1.31820000
H        2.95950000      -1.01590000      -0.29540000
H        3.39810000      -2.92420000      -1.52280000
H        3.07810000      -1.89840000       2.04980000
H        1.61650000      -2.42320000       2.88750000
H        2.84420000      -3.97760000       0.91600000
