21
Properties=species:S:1:pos:R:3 gdb_81697=T pbc="F F F"
C        0.21850000       1.72440000       0.03850000
C        0.12470000       0.20620000       0.01790000
C        0.97490000      -0.67980000      -0.92750000
C        2.32950000      -0.14230000      -1.37160000
C        3.27450000       0.31670000      -0.29220000
C        3.12270000       0.30820000       1.03340000
C        1.95900000      -0.16320000       1.86520000
C        0.74050000      -0.69300000       1.11960000
O        1.11710000      -1.67280000       0.11940000
H        1.24430000       2.07850000       0.15830000
H       -0.18010000       2.14630000      -0.89100000
H       -0.38060000       2.13500000       0.85900000
H       -0.92320000      -0.08610000      -0.10390000
H        0.44430000      -1.09290000      -1.79360000
H        2.83230000      -0.92850000      -1.95380000
H        2.16390000       0.67930000      -2.08550000
H        4.22100000       0.69430000      -0.67710000
H        3.95720000       0.67940000       1.62700000
H        2.31820000      -0.95760000       2.53600000
H        1.63500000       0.64940000       2.53370000
H        0.02850000      -1.11640000       1.83810000
