18
Properties=species:S:1:pos:R:3 gdb_41406=T pbc="F F F"
C       -0.07590000       1.41350000       0.13940000
N        1.41830000       1.54820000       0.14480000
C        1.56190000       0.08970000       0.03970000
C        2.58200000      -0.76900000      -0.70470000
O        2.55510000      -1.73770000       0.37010000
C        1.90270000      -0.79290000       1.25720000
C        0.57080000      -1.24580000       1.83620000
O       -0.41720000      -1.05940000       0.81560000
C        0.04660000      -0.12210000      -0.12510000
H       -0.51500000       1.66920000       1.10870000
H       -0.58940000       1.98170000      -0.64180000
H        1.76450000       2.03290000      -0.67610000
H        2.27850000      -1.19930000      -1.66590000
H        3.57280000      -0.30330000      -0.80570000
H        2.59570000      -0.38750000       2.00180000
H        0.56680000      -2.30160000       2.12280000
H        0.33300000      -0.63900000       2.72250000
H       -0.31640000      -0.42410000      -1.11140000
