20
Properties=species:S:1:pos:R:3 gdb_115698=T pbc="F F F"
N        0.19310000       0.78190000       0.03930000
H        0.81780000      -0.02250000       0.12620000
H        0.76790000       1.62690000       0.08330000
H       -0.27080000       0.74420000      -0.86900000
C       -0.83650000       0.82600000       1.22200000
C       -0.01900000       0.97460000       2.48830000
C        0.83120000       2.27180000       2.67240000
C        0.35600000       2.32600000       4.15530000
C       -0.77700000       1.33720000       3.79790000
C       -2.17530000       2.02080000       3.53520000
O       -2.43680000       3.00150000       4.23720000
O       -2.84440000       1.45300000       2.62920000
H       -1.49900000       1.66490000       1.02760000
H       -1.40980000      -0.09650000       1.15370000
H        0.60940000       0.07890000       2.61300000
H        1.90890000       2.20210000       2.48720000
H        0.42570000       3.11180000       2.09420000
H        1.11210000       1.92570000       4.83750000
H       -0.01150000       3.28410000       4.52360000
H       -0.93850000       0.49970000       4.48190000
