15
Properties=species:S:1:pos:R:3 gdb_55212=T pbc="F F F"
N       -0.04420000       1.22360000       0.33910000
C        0.05980000      -0.03650000      -0.14070000
O        1.05160000      -0.52660000      -0.64930000
C       -1.25670000      -0.82520000      -0.04400000
N       -1.05070000      -2.23800000      -0.29350000
C       -1.42170000      -2.92510000       0.82790000
C       -2.01000000      -2.15440000       1.78610000
C       -1.92370000      -0.77540000       1.35880000
O       -2.26160000       0.26230000       1.90640000
H        0.79670000       1.77590000       0.39550000
H       -0.82870000       1.43920000       0.94660000
H       -1.96090000      -0.39140000      -0.76480000
H       -0.19460000      -2.47580000      -0.77960000
H       -1.24280000      -3.99320000       0.86650000
H       -2.42990000      -2.49350000       2.71960000
