16
Properties=species:S:1:pos:R:3 gdb_51338=T pbc="F F F"
O       -0.00650000       0.04180000       0.26060000
C        0.02950000       1.23480000       0.24080000
O        0.99860000       1.92190000      -0.39410000
C        0.96710000       3.34890000      -0.32900000
C        2.15720000       3.87870000       0.46840000
C        3.00530000       3.91950000      -0.74850000
C        1.65790000       3.95070000      -1.57410000
C        1.64140000       5.44940000      -1.24540000
N        2.59250000       5.19580000      -0.10590000
H       -0.71900000       1.89180000       0.72470000
H       -0.04660000       3.69000000      -0.08660000
H        2.42230000       3.67660000       1.49750000
H        4.02620000       3.62920000      -0.95170000
H        1.45230000       3.53590000      -2.55800000
H        2.15310000       6.06680000      -1.98690000
H        0.68750000       5.91460000      -0.96900000
