15
Properties=species:S:1:pos:R:3 gdb_2867=T pbc="F F F"
O       -0.10410000       1.27950000      -0.68160000
C        0.06630000       0.14090000       0.14550000
C       -1.25110000      -0.56520000       0.35630000
O       -1.74250000      -1.31890000      -0.76630000
C       -1.44450000      -2.02090000       0.45360000
C       -0.35980000      -3.06650000       0.35980000
O       -0.83450000      -4.21960000      -0.31430000
H       -0.47940000       0.96710000      -1.51270000
H        0.81390000      -0.54780000      -0.26920000
H        0.44470000       0.51220000       1.10420000
H       -2.01270000       0.06770000       0.81580000
H       -2.33630000      -2.36840000       0.97860000
H        0.53390000      -2.65610000      -0.12830000
H       -0.07430000      -3.39480000       1.36520000
H       -1.13010000      -3.93180000      -1.18540000
