16
Properties=species:S:1:pos:R:3 gdb_130954=T pbc="F F F"
O       -0.17060000      -0.06620000      -0.26840000
C       -0.01710000       1.11380000      -0.09880000
C        1.32030000       1.82470000      -0.15680000
C        1.32940000       2.90990000      -1.25030000
N        2.53790000       3.71690000      -1.23250000
C        2.75480000       4.89910000      -0.57890000
N        3.98370000       5.31110000      -0.74920000
N        4.62050000       4.37450000      -1.54070000
C        3.74640000       3.44050000      -1.81140000
H       -0.88420000       1.78170000       0.11590000
H        1.49330000       2.30630000       0.81480000
H        2.10920000       1.08790000      -0.32560000
H        1.23720000       2.45060000      -2.23870000
H        0.47490000       3.58270000      -1.12720000
H        1.98770000       5.40630000      -0.01350000
H        3.92160000       2.56260000      -2.41450000
