20
Properties=species:S:1:pos:R:3 gdb_64204=T pbc="F F F"
C       -0.15040000       1.52170000       0.02600000
C       -0.02010000       0.00670000      -0.02840000
O       -1.24050000      -0.61510000      -0.36180000
C        1.14280000      -0.50040000      -0.91270000
N        1.97120000      -0.63040000       0.30950000
C        0.78640000      -0.61560000       1.16940000
C        0.81930000      -0.04570000       2.59760000
O        0.10080000      -1.18700000       3.11070000
C        0.21980000      -1.88120000       1.85170000
H        0.81440000       1.98650000       0.24710000
H       -0.51150000       1.90110000      -0.93500000
H       -0.85870000       1.83130000       0.80470000
H       -1.94630000      -0.19160000       0.13910000
H        0.87180000      -1.44790000      -1.39450000
H        1.54360000       0.18800000      -1.66420000
H        2.55050000      -1.46110000       0.37100000
H        1.83520000       0.03050000       3.00990000
H        0.28750000       0.89580000       2.78290000
H       -0.74230000      -2.24790000       1.47960000
H        0.93560000      -2.71550000       1.90650000
