17
Properties=species:S:1:pos:R:3 gdb_26966=T pbc="F F F"
O        0.53640000       1.21720000       0.01520000
C        0.22610000      -0.10000000      -0.07420000
C       -0.02370000      -0.92820000      -1.14890000
C       -0.31560000      -2.21790000      -0.58520000
C       -0.21900000      -2.12300000       0.77590000
N        0.11560000      -0.81330000       1.08030000
C       -0.01830000      -0.54170000      -2.57810000
C        1.06280000       0.33040000      -3.13100000
N        1.00110000      -1.09070000      -3.50150000
H        0.50640000       1.57970000      -0.87720000
H       -0.56090000      -3.10890000      -1.14320000
H       -0.34960000      -2.85360000       1.55630000
H        0.24980000      -0.42570000       1.99770000
H       -0.99170000      -0.47070000      -3.06210000
H        0.84400000       1.02400000      -3.93830000
H        1.86010000       0.64870000      -2.46320000
H        1.68510000      -1.60280000      -2.94820000
