19
Properties=species:S:1:pos:R:3 gdb_86898=T pbc="F F F"
C        0.25630000       1.80580000       0.23480000
C        0.16940000       0.33690000      -0.16640000
O        0.98520000       0.07370000      -1.31940000
C        2.15720000      -0.65780000      -0.95330000
C        2.17580000      -0.76360000       0.57180000
C        0.68000000      -0.64470000       0.91030000
O        0.39080000      -0.15190000       2.20170000
C        2.10200000      -2.01470000      -1.65290000
O        2.60750000      -3.02260000      -1.23160000
H        1.27060000       2.07980000       0.53950000
H       -0.02800000       2.43180000      -0.61520000
H       -0.41680000       2.01180000       1.07050000
H       -0.86240000       0.09960000      -0.44860000
H        3.04200000      -0.13370000      -1.34550000
H        2.62820000      -1.70430000       0.89280000
H        2.71840000       0.07000000       1.02540000
H        0.19580000      -1.62040000       0.75120000
H        0.67630000      -0.80800000       2.84450000
H        1.53680000      -1.98810000      -2.61050000
