19
Properties=species:S:1:pos:R:3 gdb_97676=T pbc="F F F"
O        0.22300000       1.06930000      -0.76690000
C       -0.02270000       0.11140000       0.25350000
C       -1.36180000      -0.47380000       0.20340000
C       -2.47880000      -0.92720000       0.15600000
C       -3.83950000      -1.45210000       0.10310000
O       -4.60880000      -1.02650000       1.21340000
C       -4.48760000      -1.29400000      -1.31840000
C       -4.08540000      -2.75980000      -1.62570000
C       -3.90770000      -2.99380000      -0.10300000
H       -0.49290000       1.71240000      -0.73720000
H        0.73280000      -0.66990000       0.11450000
H        0.14680000       0.53850000       1.25520000
H       -4.38870000      -0.10660000       1.39480000
H       -5.56780000      -1.18150000      -1.19550000
H       -4.10410000      -0.50200000      -1.96430000
H       -4.81870000      -3.38060000      -2.14260000
H       -3.13530000      -2.81780000      -2.16160000
H       -3.05710000      -3.58210000       0.24390000
H       -4.82360000      -3.36310000       0.36520000
