20
Properties=species:S:1:pos:R:3 gdb_51871=T pbc="F F F"
N       -0.09030000       1.29910000      -0.10120000
C       -0.03530000       0.04340000       0.01130000
O       -1.16660000      -0.68770000      -0.00900000
C       -1.03740000      -2.11200000      -0.00510000
C       -2.21720000      -2.70070000       0.76400000
C       -2.22770000      -4.23050000       0.61790000
C       -2.13750000      -4.62250000      -0.85760000
O       -0.99730000      -4.04670000      -1.47930000
C       -1.03000000      -2.63430000      -1.44890000
H        0.84610000       1.69320000      -0.04020000
H        0.87320000      -0.56130000       0.14590000
H       -0.09420000      -2.39880000       0.48110000
H       -2.17110000      -2.39740000       1.81450000
H       -3.13930000      -2.27660000       0.34710000
H       -1.37400000      -4.66520000       1.15200000
H       -3.13640000      -4.65140000       1.06180000
H       -2.03320000      -5.70430000      -0.97730000
H       -3.05260000      -4.30720000      -1.38780000
H       -1.92000000      -2.24200000      -1.96880000
H       -0.14230000      -2.28450000      -1.98480000
