17
Properties=species:S:1:pos:R:3 gdb_17649=T pbc="F F F"
N        0.19880000       1.07360000       0.07640000
H       -0.05460000       0.16090000      -0.28420000
H        1.16750000       1.01760000       0.37900000
H       -0.13250000       2.78100000      -0.50690000
C       -0.65750000       1.45580000       1.22270000
C       -0.11990000       0.93930000       2.54830000
C        0.85430000       1.72630000       3.39730000
C       -0.53810000       1.44410000       3.90420000
C       -0.89670000       2.98650000       1.16210000
O       -0.51780000       3.53210000       0.00390000
O       -1.40880000       3.62400000       2.04600000
H       -1.64750000       1.01560000       1.04450000
H        0.07090000      -0.13060000       2.49580000
H        1.69240000       1.19750000       3.83750000
H        1.06950000       2.75010000       3.11130000
H       -1.22420000       2.27910000       3.93280000
H       -0.65910000       0.70630000       4.68990000
