16
Properties=species:S:1:pos:R:3 gdb_42929=T pbc="F F F"
O       -0.05060000       0.03690000      -0.13050000
C       -0.08470000       1.22540000      -0.00840000
C       -1.16820000       2.26070000      -0.07950000
C       -1.05660000       3.16650000       1.14180000
C       -0.08590000       3.36510000       0.03070000
C        1.03470000       2.31320000       0.08450000
C        2.03130000       2.33700000       1.25310000
C        3.00240000       1.24630000       1.19240000
N        3.78640000       0.39960000       1.13720000
H       -2.07370000       2.22010000      -0.67060000
H       -1.85380000       3.89860000       1.21520000
H       -0.75030000       2.75840000       2.10020000
H       -0.04110000       4.27740000      -0.54890000
H        1.58420000       2.27980000      -0.86300000
H        2.58240000       3.28540000       1.24540000
H        1.51000000       2.28660000       2.21460000
