17
Properties=species:S:1:pos:R:3 gdb_108738=T pbc="F F F"
C        0.00140000       1.53580000       0.16970000
C       -0.02870000       0.00780000      -0.02950000
C       -1.41780000      -0.54230000      -0.05770000
C       -2.15060000      -0.98340000      -1.09140000
C       -3.49210000      -1.41770000      -0.61100000
O       -4.42450000      -1.87020000      -1.23040000
N       -3.46660000      -1.19100000       0.77090000
C       -2.24470000      -0.67060000       1.18270000
N       -1.83370000      -0.35360000       2.34550000
H        1.03490000       1.89380000       0.18270000
H       -0.52700000       2.04770000      -0.64040000
H       -0.46920000       1.80680000       1.11740000
H        0.48010000      -0.25750000      -0.96180000
H        0.51730000      -0.46500000       0.79380000
H       -1.87010000      -1.04380000      -2.13330000
H       -4.24550000      -1.40460000       1.37180000
H       -2.54310000      -0.52180000       3.06110000
