17
Properties=species:S:1:pos:R:3 gdb_1542=T pbc="F F F"
C       -0.03140000       1.57350000      -0.02700000
C        0.01420000       0.04360000      -0.00860000
C        0.70050000      -0.51490000       1.24120000
C        0.79160000      -2.05330000       1.23470000
O        1.48820000      -2.54570000       0.09070000
C        1.38350000      -2.55610000       2.47840000
C        1.91260000      -2.94200000       3.48680000
H        0.97750000       2.00070000      -0.00540000
H       -0.52970000       1.94480000      -0.92780000
H       -0.57370000       1.96710000       0.84000000
H       -1.00730000      -0.35570000      -0.06620000
H        0.53760000      -0.33030000      -0.89450000
H        1.71710000      -0.10820000       1.33100000
H        0.16320000      -0.20340000       2.14540000
H       -0.22220000      -2.46170000       1.13340000
H        2.42600000      -2.37050000       0.22840000
H        2.36430000      -3.29930000       4.37920000
