19
Properties=species:S:1:pos:R:3 gdb_51184=T pbc="F F F"
O        0.02760000       0.01650000      -0.47080000
C        0.08160000       1.20780000      -0.41110000
O        1.08590000       1.85800000       0.21630000
C        1.00110000       3.26870000       0.26610000
C        1.13630000       4.06420000      -1.00600000
C        2.24090000       4.08680000       0.03570000
C        2.24960000       5.22130000       1.04970000
C        0.78910000       5.30230000       1.56050000
C        0.23230000       3.86680000       1.43280000
H       -0.65950000       1.89610000      -0.85780000
H        1.35060000       3.50050000      -1.90720000
H        0.51030000       4.93690000      -1.16310000
H        3.16960000       3.59110000      -0.22200000
H        2.92970000       4.96180000       1.86930000
H        2.59450000       6.17260000       0.63210000
H        0.72540000       5.68130000       2.58310000
H        0.20740000       5.98740000       0.93610000
H       -0.85450000       3.84550000       1.29830000
H        0.46560000       3.27250000       2.32380000
