17
Properties=species:S:1:pos:R:3 gdb_123904=T pbc="F F F"
C       -0.01990000       1.52930000       0.00820000
C        1.42440000       2.07390000       0.03770000
N        2.22620000       1.60480000       1.17320000
C        1.92330000       0.30620000       1.56940000
C        0.94500000      -0.47720000       0.99850000
C       -0.03880000      -0.01700000      -0.02380000
N        1.06620000      -1.65130000       1.67200000
N        2.03540000      -1.59210000       2.60420000
N        2.56550000      -0.39750000       2.54040000
H       -0.55650000       1.87740000       0.89840000
H       -0.54090000       1.93110000      -0.86620000
H        1.93070000       1.77300000      -0.89050000
H        1.41630000       3.16670000       0.05220000
H        2.29670000       2.25710000       1.94170000
H       -1.04790000      -0.38890000       0.18760000
H        0.22320000      -0.37750000      -1.02780000
H        0.55050000      -2.50910000       1.55920000
