20
Properties=species:S:1:pos:R:3 gdb_110473=T pbc="F F F"
C        0.07180000       1.54820000      -0.09290000
C       -0.14480000       0.03510000       0.02610000
C        0.61440000      -0.57420000       1.18980000
C        0.73370000      -2.09990000       1.39570000
C        1.52660000      -2.63110000       0.17510000
C        2.86270000      -2.62120000       0.90150000
C        2.50390000      -1.46100000       0.02360000
N        2.13390000      -0.53650000       1.14320000
C        2.14600000      -1.81440000       2.00750000
H        1.13520000       1.78130000      -0.20120000
H       -0.45910000       1.95860000      -0.95740000
H       -0.28950000       2.07020000       0.79990000
H       -1.21330000      -0.18220000       0.15560000
H        0.15840000      -0.46030000      -0.90410000
H        0.32370000      -0.09020000       2.13190000
H       -0.03410000      -2.72670000       1.84920000
H        1.19820000      -3.24990000      -0.64820000
H        3.70360000      -3.30030000       0.89240000
H        2.92670000      -1.12370000      -0.91330000
H        2.38890000      -1.72690000       3.06450000
