18
Properties=species:S:1:pos:R:3 gdb_39573=T pbc="F F F"
C       -0.02570000       1.53660000       0.00460000
C        1.35520000       2.14090000      -0.00690000
C        2.46620000       1.41700000      -0.12930000
C        2.42210000      -0.09410000      -0.26850000
C        1.09860000      -0.51990000      -0.91930000
C       -0.00140000       0.00260000      -0.00190000
O        0.20810000      -0.49850000       1.34350000
C        1.46660000      -0.84900000       1.70150000
N        2.55090000      -0.72190000       1.06080000
H       -0.58750000       1.87730000       0.88240000
H       -0.59560000       1.88440000      -0.86990000
H        1.41470000       3.22180000       0.09260000
H        3.44360000       1.88850000      -0.09850000
H        3.27230000      -0.43130000      -0.86820000
H        0.98590000      -0.09040000      -1.91940000
H        1.05030000      -1.60970000      -1.00310000
H       -0.98620000      -0.38200000      -0.27940000
H        1.45200000      -1.29810000       2.69310000
