16
Properties=species:S:1:pos:R:3 gdb_17118=T pbc="F F F"
N        0.34390000       0.98780000       0.48910000
C        0.09720000      -0.13030000      -0.01650000
C       -1.08910000      -1.06810000      -0.02770000
C       -0.19390000      -1.93490000      -0.94690000
O        0.88680000      -0.94950000      -0.81080000
C        0.20980000      -3.30240000      -0.46890000
C        1.60050000      -3.78270000      -0.64220000
N        1.07840000      -3.46540000       0.70270000
H        1.28480000       1.30720000       0.25300000
H       -1.32160000      -1.51180000       0.94220000
H       -1.99650000      -0.65950000      -0.47380000
H       -0.52770000      -1.97150000      -1.98910000
H       -0.60390000      -4.02470000      -0.52110000
H        1.79230000      -4.83540000      -0.82670000
H        2.31500000      -3.09510000      -1.08480000
H        1.44090000      -2.55420000       0.97780000
