17
Properties=species:S:1:pos:R:3 gdb_74539=T pbc="F F F"
C       -0.07360000       1.49810000      -0.01490000
C       -0.01490000       0.00840000       0.01020000
C       -0.07780000      -0.87490000      -1.00480000
C        0.04440000      -2.17360000      -0.23570000
O        0.09840000      -3.62310000      -0.24430000
C        0.22010000      -3.20970000       1.20360000
C        1.11050000      -1.99080000       0.87840000
C        0.14070000      -0.84520000       1.31000000
C       -0.80430000      -2.06330000       1.06010000
H        0.83420000       1.94100000       0.41480000
H       -0.18530000       1.87830000      -1.03390000
H       -0.91450000       1.87490000       0.58180000
H       -0.18470000      -0.70830000      -2.06540000
H        0.31880000      -4.02290000       1.91950000
H        2.18870000      -1.96530000       0.72060000
H        0.21110000      -0.31920000       2.26220000
H       -1.89180000      -2.11980000       1.10760000
