15
Properties=species:S:1:pos:R:3 gdb_43988=T pbc="F F F"
O       -0.04320000       0.00190000       0.10130000
C       -0.03810000       1.18660000      -0.03910000
C       -1.16700000       2.26450000      -0.13930000
C       -0.05280000       3.28760000       0.15040000
C        0.30120000       4.25850000       1.24590000
O        1.68250000       4.00930000       1.52820000
C        2.03970000       2.65900000       1.19200000
C        1.03080000       2.26330000       0.15050000
O        0.86890000       3.21280000      -0.91890000
H       -1.68480000       2.39280000      -1.09050000
H       -1.89120000       2.11920000       0.66740000
H        0.21760000       5.31350000       0.96970000
H       -0.34150000       4.06990000       2.12030000
H        3.07720000       2.67780000       0.84890000
H        1.96110000       1.98400000       2.05700000
