21
Properties=species:S:1:pos:R:3 gdb_106977=T pbc="F F F"
C       -0.40120000       1.44910000       0.22150000
C        0.13970000       0.04490000      -0.07990000
C        0.97380000      -0.51010000       1.04710000
C        2.32990000       0.10560000       1.41120000
C        3.07930000      -1.04690000       2.04440000
C        2.37690000      -2.18570000       2.04960000
C        2.78260000      -3.52260000       2.58260000
C        1.02710000      -1.92680000       1.45020000
O        0.24560000      -0.96330000       2.19990000
H        0.41080000       2.16990000       0.36330000
H       -1.02810000       1.81150000      -0.59840000
H       -1.00510000       1.43830000       1.13380000
H       -0.69560000      -0.63970000      -0.26240000
H        0.74470000       0.06420000      -0.99550000
H        2.84330000       0.48910000       0.51900000
H        2.21430000       0.95210000       2.09870000
H        4.06750000      -0.92820000       2.47680000
H        3.80820000      -3.50840000       2.96130000
H        2.12160000      -3.84170000       3.39810000
H        2.71910000      -4.29680000       1.80740000
H        0.44650000      -2.71360000       0.97400000
