20
Properties=species:S:1:pos:R:3 gdb_99327=T pbc="F F F"
C       -0.02320000       1.24900000      -1.31170000
C        0.22600000      -0.24220000      -1.51950000
C        1.29500000      -0.80030000      -0.60280000
O        1.92260000      -0.12950000       0.18260000
C        1.57090000      -2.31110000      -0.65680000
O        0.88270000      -2.99300000      -1.69300000
C        1.57330000      -3.24710000      -2.82920000
N        0.98660000      -3.68310000      -3.84950000
C        1.79720000      -3.97720000      -5.01300000
H       -0.34780000       1.45250000      -0.28790000
H        0.88920000       1.82580000      -1.48250000
H       -0.79490000       1.60830000      -1.99760000
H       -0.68480000      -0.83800000      -1.37360000
H        0.52150000      -0.46150000      -2.55480000
H        2.65580000      -2.46100000      -0.71980000
H        1.23470000      -2.74270000       0.29180000
H        2.65570000      -3.05490000      -2.75070000
H        2.86980000      -3.76080000      -4.87980000
H        1.69070000      -5.03570000      -5.27560000
H        1.43230000      -3.39920000      -5.86930000
