18
Properties=species:S:1:pos:R:3 gdb_98632=T pbc="F F F"
O        0.09420000       1.31200000      -0.24930000
C        0.05590000      -0.02510000       0.15450000
C       -1.38640000      -0.52920000       0.18230000
O       -2.29920000       0.21810000      -0.11990000
N       -1.57300000      -1.80550000       0.66690000
C       -1.08700000      -3.03390000       0.03880000
C       -1.22130000      -4.15300000       1.07990000
C       -2.75850000      -3.83330000       1.17280000
C       -2.56060000      -2.72510000       0.12890000
H       -0.83690000       1.55440000      -0.38380000
H        0.64400000      -0.65890000      -0.52870000
H        0.48950000      -0.15830000       1.15740000
H       -0.42410000      -2.98070000      -0.81650000
H       -1.02950000      -5.14180000       0.65900000
H       -0.62980000      -4.02180000       1.98830000
H       -3.37270000      -4.65570000       0.80160000
H       -3.13920000      -3.50030000       2.14030000
H       -3.24370000      -2.37390000      -0.63370000
