19
Properties=species:S:1:pos:R:3 gdb_110514=T pbc="F F F"
C        0.04760000       1.28290000       0.22110000
O        0.01580000      -0.06590000      -0.20470000
C       -1.24600000      -0.66120000      -0.06800000
C       -1.40020000      -2.07690000      -0.58750000
C       -0.99120000      -3.02940000       0.54110000
C       -0.54170000      -2.17000000       1.72460000
C       -1.68780000      -1.21260000       1.31290000
O       -2.26660000      -0.31250000       2.19010000
C       -2.37100000      -2.42570000       0.52250000
H        1.06130000       1.65270000       0.04910000
H       -0.65870000       1.90170000      -0.35430000
H       -0.19830000       1.38370000       1.28630000
H       -2.03640000      -0.00720000      -0.46800000
H       -1.43500000      -2.39640000      -1.62000000
H       -0.71690000      -4.05380000       0.32820000
H       -0.76380000      -2.66680000       2.67580000
H        0.47220000      -1.75910000       1.73120000
H       -2.40280000      -0.75120000       3.03680000
H       -3.36560000      -2.84390000       0.49120000
