19
Properties=species:S:1:pos:R:3 gdb_126307=T pbc="F F F"
C        0.01180000       1.58600000       0.18000000
C        0.00040000       0.06070000      -0.03220000
C       -1.37750000      -0.52490000      -0.10010000
C       -2.16140000      -0.81630000      -1.20390000
C       -3.36020000      -1.31260000      -0.65750000
O       -4.43690000      -1.72530000      -1.36060000
N       -3.34520000      -1.33730000       0.66600000
N       -2.12040000      -0.83550000       0.99630000
C       -1.72850000      -0.84210000       2.38690000
H        1.03760000       1.96730000       0.19420000
H       -0.53170000       2.09070000      -0.62380000
H       -0.46480000       1.86440000       1.12520000
H        0.51110000      -0.17570000      -0.97090000
H        0.58150000      -0.42620000       0.75990000
H       -1.90870000      -0.68350000      -2.24260000
H       -5.09760000      -2.01050000      -0.71690000
H       -1.30550000      -1.80930000       2.68510000
H       -0.99060000      -0.06010000       2.57380000
H       -2.61450000      -0.64770000       2.99300000
