23
Properties=species:S:1:pos:R:3 gdb_80476=T pbc="F F F"
C       -0.15050000       1.57210000      -0.18400000
C        0.04260000       0.08210000       0.00310000
C        1.31360000      -0.66850000      -0.31150000
C        2.62840000       0.11040000      -0.36770000
C        3.11670000       0.18370000       1.10040000
C        4.07000000       1.33550000       1.41210000
C        1.82470000       0.14310000       1.97390000
O        1.32840000       1.43100000       2.33940000
C        0.80210000      -0.60310000       1.12310000
H        0.73710000       2.14890000       0.07160000
H       -0.42220000       1.78600000      -1.22470000
H       -0.95920000       1.93690000       0.45690000
H       -0.85120000      -0.47900000      -0.26550000
H        1.24170000      -1.58780000      -0.88290000
H        3.36180000      -0.39110000      -1.00590000
H        2.49080000       1.11540000      -0.78340000
H        3.63350000      -0.76290000       1.30780000
H        3.59050000       2.30230000       1.22840000
H        4.40470000       1.31340000       2.45680000
H        4.96620000       1.28480000       0.78550000
H        2.02220000      -0.43110000       2.89130000
H        1.96950000       1.83330000       2.93390000
H        0.32240000      -1.46150000       1.58030000
