19
Properties=species:S:1:pos:R:3 gdb_92937=T pbc="F F F"
C       -0.71170000       1.17800000       0.03240000
C        0.14990000      -0.07150000      -0.11120000
C        1.29990000       0.02210000      -1.14490000
C        2.35200000      -0.90040000      -0.58440000
C        2.09650000      -1.25450000       0.67330000
C        0.85320000      -0.55600000       1.21380000
N        1.16490000       0.56720000       2.12320000
C       -0.01940000      -1.48100000       1.95380000
N       -0.69150000      -2.22500000       2.52870000
H       -0.12150000       2.04290000       0.34600000
H       -1.18760000       1.41660000      -0.92450000
H       -1.49970000       1.03110000       0.77630000
H       -0.48830000      -0.90380000      -0.42540000
H        0.96730000      -0.26990000      -2.14700000
H        1.68590000       1.04770000      -1.23870000
H        3.22810000      -1.20350000      -1.14720000
H        2.70950000      -1.88620000       1.30570000
H        1.52800000       0.20430000       3.00060000
H        1.91600000       1.11440000       1.71020000
