17
Properties=species:S:1:pos:R:3 gdb_61942=T pbc="F F F"
C       -0.86290000       1.43510000       0.88040000
C       -0.50470000       0.04720000       0.36500000
C        0.71680000      -0.53400000       1.11220000
C        1.09290000      -1.85620000       0.61850000
N        1.36760000      -2.89910000       0.20280000
O       -1.62850000      -0.81160000       0.58020000
C       -2.01090000      -1.61750000      -0.51190000
C       -2.58260000      -0.82690000      -1.61970000
N       -3.01180000      -0.18580000      -2.47980000
H       -0.02020000       2.12390000       0.76920000
H       -1.71240000       1.83060000       0.31940000
H       -1.14010000       1.38780000       1.93800000
H       -0.27470000       0.09970000      -0.70640000
H        1.57340000       0.14100000       1.01060000
H        0.47810000      -0.60750000       2.17870000
H       -1.17910000      -2.22000000      -0.89900000
H       -2.77390000      -2.30610000      -0.13750000
