17
Properties=species:S:1:pos:R:3 gdb_76216=T pbc="F F F"
C       -0.02490000       1.45340000      -0.02770000
N       -0.01460000       0.00510000      -0.01020000
C       -1.11540000      -0.84030000       0.01930000
C       -2.49040000      -0.26610000       0.03650000
C       -0.76280000      -2.15980000       0.02890000
C        0.68180000      -2.23550000       0.00440000
O        1.46040000      -3.16810000       0.00200000
C        1.14600000      -0.76430000      -0.02140000
N        2.32490000      -0.30310000      -0.04780000
H        1.01590000       1.77880000      -0.04980000
H       -0.53630000       1.84370000      -0.91440000
H       -0.50530000       1.86540000       0.86650000
H       -2.66980000       0.35380000      -0.84930000
H       -3.23430000      -1.06310000       0.05960000
H       -2.63860000       0.37580000       0.91230000
H       -1.44610000      -2.99360000       0.05100000
H        2.97050000      -1.09850000      -0.04960000
