21
Properties=species:S:1:pos:R:3 gdb_101230=T pbc="F F F"
C       -0.61540000       1.29210000       0.19800000
C        0.18580000       0.01160000       0.08200000
C        0.83400000      -0.32720000      -1.28040000
C        2.16560000      -0.26930000      -0.50890000
O        1.49310000       0.11910000       0.71060000
C        2.91180000      -1.58580000      -0.34690000
O        3.45100000      -1.92010000      -1.61360000
C        4.02230000      -1.48700000       0.69320000
O        4.70250000      -2.74140000       0.65960000
H       -0.07570000       2.13130000      -0.25200000
H       -1.58060000       1.18530000      -0.30960000
H       -0.80690000       1.53070000       1.24900000
H       -0.37560000      -0.82420000       0.52170000
H        0.58590000      -1.29860000      -1.70990000
H        0.71160000       0.44540000      -2.04160000
H        2.86970000       0.50320000      -0.84530000
H        2.19970000      -2.35900000      -0.01020000
H        4.11800000      -2.59590000      -1.43810000
H        4.70160000      -0.66480000       0.42210000
H        3.59330000      -1.28000000       1.68180000
H        5.51900000      -2.66190000       1.15990000
