25
Properties=species:S:1:pos:R:3 gdb_123016=T pbc="F F F"
C        0.11560000       1.54380000       0.22450000
C        0.00130000       0.01780000       0.27650000
C       -1.37700000      -0.49870000      -0.15060000
C       -1.49880000      -2.02450000      -0.09710000
C       -2.87990000      -2.53900000      -0.52910000
C       -2.96770000      -4.04470000      -0.46630000
O       -3.07340000      -4.64460000       0.83330000
C       -4.16100000      -4.81880000      -0.08270000
C       -5.49560000      -4.22870000       0.29630000
H        1.10810000       1.88250000       0.53800000
H       -0.05930000       1.91970000      -0.78990000
H       -0.62120000       2.01810000       0.88250000
H        0.77010000      -0.43010000      -0.36700000
H        0.21810000      -0.33240000       1.29430000
H       -2.14720000      -0.04950000       0.49210000
H       -1.59510000      -0.14990000      -1.17020000
H       -0.72700000      -2.47500000      -0.73630000
H       -1.29630000      -2.37730000       0.92190000
H       -3.65030000      -2.09070000       0.10590000
H       -3.08870000      -2.21880000      -1.55950000
H       -2.24850000      -4.55400000      -1.11440000
H       -4.22520000      -5.83320000      -0.48460000
H       -5.39820000      -3.21450000       0.68750000
H       -6.16260000      -4.20680000      -0.57260000
H       -5.97280000      -4.84320000       1.06710000
