17
Properties=species:S:1:pos:R:3 gdb_8014=T pbc="F F F"
C       -0.18950000       1.57840000       0.11390000
C        0.05650000       0.09680000       0.11120000
C       -1.10710000      -0.92380000       0.06830000
C       -0.39600000      -1.77400000       1.16620000
C        0.77870000      -0.74730000       1.20790000
C        1.80000000      -0.98980000       0.12670000
N        2.89310000      -1.60270000       0.06320000
O        1.11000000      -0.28800000      -0.84600000
H        0.74030000       2.12860000       0.28520000
H       -0.60460000       1.89810000      -0.84830000
H       -0.90450000       1.84630000       0.89790000
H       -2.06360000      -0.50510000       0.39120000
H       -1.23890000      -1.39600000      -0.90690000
H       -0.95070000      -1.80760000       2.10550000
H       -0.11100000      -2.79150000       0.89390000
H        1.12630000      -0.37690000       2.17020000
H        3.29240000      -1.54880000      -0.87580000
