17
Properties=species:S:1:pos:R:3 gdb_62320=T pbc="F F F"
C       -0.03580000       1.60140000       0.04640000
C        0.07960000       0.07390000      -0.05180000
C       -0.99860000      -0.57930000       0.66560000
N       -1.86330000      -1.08320000       1.24680000
C        0.47530000      -0.76350000      -1.26060000
C        1.77430000      -0.30530000      -1.95060000
C        2.55500000       0.77940000      -1.30870000
N        2.58960000      -0.56300000      -0.70530000
C        1.29460000      -0.88850000      -0.00730000
H        0.15580000       2.08190000      -0.91360000
H       -1.05250000       1.86570000       0.34640000
H        0.64460000       2.01490000       0.79630000
H       -0.20570000      -1.46930000      -1.71710000
H        2.07770000      -0.73980000      -2.89730000
H        3.49990000       1.01260000      -1.79290000
H        2.11420000       1.61210000      -0.78550000
H        1.32860000      -1.66500000       0.74540000
