19
Properties=species:S:1:pos:R:3 gdb_84381=T pbc="F F F"
C        0.27330000       1.64580000      -0.12570000
C        0.08540000       0.13090000       0.03470000
C        0.63710000      -0.67100000      -1.12160000
C        1.43920000      -1.66560000      -0.74390000
C        1.61110000      -1.73220000       0.75100000
O        2.97130000      -1.75090000       1.17370000
C        0.79300000      -0.51670000       1.24000000
C        1.17060000       0.19180000       2.47020000
O        0.04160000      -0.68590000       2.44470000
H        1.33450000       1.91020000      -0.17970000
H       -0.20730000       1.99670000      -1.04500000
H       -0.17490000       2.19340000       0.70870000
H       -0.99040000      -0.06740000       0.14140000
H        0.37110000      -0.43940000      -2.14840000
H        1.93170000      -2.37260000      -1.40200000
H        1.18320000      -2.64550000       1.18070000
H        3.41680000      -1.01510000       0.73830000
H        2.02860000      -0.16670000       3.03510000
H        0.93800000       1.24900000       2.58520000
