17
Properties=species:S:1:pos:R:3 gdb_4947=T pbc="F F F"
C        0.00170000       1.54810000      -0.10510000
C       -0.03280000       0.03120000       0.09830000
N       -1.37370000      -0.52370000       0.04030000
C       -2.11800000      -0.96190000       1.08470000
N       -3.31570000      -1.37080000       0.71510000
C       -3.35670000      -1.18100000      -0.64280000
N       -4.52700000      -1.46270000      -1.35470000
C       -2.16770000      -0.65410000      -1.09260000
H        1.03180000       1.91300000      -0.04690000
H       -0.40330000       1.82300000      -1.08290000
H       -0.59050000       2.05480000       0.66210000
H        0.58620000      -0.46750000      -0.65640000
H        0.38280000      -0.23040000       1.07610000
H       -1.73380000      -0.96880000       2.09450000
H       -5.11770000      -2.09060000      -0.82440000
H       -4.35750000      -1.83920000      -2.27770000
H       -1.81620000      -0.36900000      -2.06970000
