20
Properties=species:S:1:pos:R:3 gdb_39239=T pbc="F F F"
C       -0.02030000       1.52650000       0.02050000
C        1.30380000       0.77660000      -0.00500000
C        2.24450000       0.87070000       1.18390000
N        2.67510000      -0.46750000       1.59410000
C        2.73990000      -0.73720000       3.02620000
C        1.62800000      -1.29470000       2.20170000
C        0.22120000      -0.75570000       2.34230000
O       -0.49100000      -0.75050000       1.11570000
C       -0.00280000       0.02050000       0.05140000
H       -0.25430000       2.04110000       0.94770000
H       -0.37980000       2.03100000      -0.87010000
H        1.81220000       0.70740000      -0.96230000
H        3.13710000       1.44270000       0.90690000
H        1.76820000       1.43000000       2.00360000
H        3.55390000      -1.37620000       3.35690000
H        2.49570000       0.07520000       3.71080000
H        1.67150000      -2.34010000       1.90080000
H       -0.35970000      -1.40990000       3.00030000
H        0.22350000       0.23970000       2.80730000
H       -0.28660000      -0.47100000      -0.87440000
