15
Properties=species:S:1:pos:R:3 gdb_127840=T pbc="F F F"
C       -0.03590000       1.43490000       0.00490000
N       -0.11830000      -0.00780000      -0.10480000
C        0.49570000      -0.63490000      -1.03130000
C        0.42060000      -2.08130000      -1.14610000
C        1.13950000      -2.68900000      -2.10150000
O        1.11440000      -4.02130000      -2.33600000
N        1.94730000      -1.92320000      -2.92190000
N        1.94210000      -0.54590000      -2.90130000
N        1.28840000       0.05330000      -2.02080000
H        0.60780000       1.91960000      -0.73560000
H       -1.04710000       1.85350000      -0.07740000
H        0.32060000       1.69100000       1.01050000
H       -0.19330000      -2.64510000      -0.45880000
H        1.98610000      -4.32800000      -2.61410000
H        2.29720000      -2.28730000      -3.79510000
