14
Properties=species:S:1:pos:R:3 gdb_128993=T pbc="F F F"
N        0.02290000       1.34390000       0.00940000
N        1.28220000       1.86200000       0.00030000
C        2.09820000       0.82900000      -0.01340000
C        1.37780000      -0.40400000      -0.01340000
C        0.01760000      -0.01500000       0.00180000
C       -0.99580000      -0.97940000       0.00620000
C       -0.56950000      -2.29510000      -0.00530000
N        0.72240000      -2.70010000      -0.02000000
C        1.66970000      -1.77530000      -0.02390000
H       -0.75920000       1.97540000       0.02050000
H        3.16640000       0.98800000      -0.02270000
H       -2.04960000      -0.72710000       0.01770000
H       -1.30530000      -3.09490000      -0.00280000
H        2.69930000      -2.12730000      -0.03580000
