13
Properties=species:S:1:pos:R:3 gdb_27580=T pbc="F F F"
C       -0.02290000       1.48820000       0.00010000
C        0.01380000      -0.00810000      -0.00750000
N       -0.05050000      -0.63730000      -1.18800000
C       -0.01220000      -1.96810000      -1.11340000
N        0.08140000      -2.69930000      -0.00290000
C        0.13850000      -1.96380000       1.11000000
N        0.10970000      -0.63730000       1.17470000
C       -0.07920000      -2.68960000      -2.36680000
N       -0.13270000      -3.26420000      -3.36750000
H        0.88210000       1.87810000       0.47640000
H       -0.10410000       1.87500000      -1.01500000
H       -0.86990000       1.83470000       0.60040000
H        0.21580000      -2.50600000       2.04940000
