23
Properties=species:S:1:pos:R:3 gdb_77468=T pbc="F F F"
C        0.05710000       1.64400000      -0.31390000
C        0.16730000       0.14100000      -0.15690000
C        1.41750000      -0.64530000      -0.42140000
C        1.64890000      -1.68090000      -1.47440000
O        2.56410000       0.11010000       0.01290000
C        2.14830000      -0.02940000       1.40330000
C        2.25070000       1.23510000       2.23500000
C        0.81680000      -0.65290000       0.97890000
C        0.09330000      -1.71140000       1.76140000
H        1.04290000       2.11120000      -0.27920000
H       -0.39080000       1.88700000      -1.28380000
H       -0.57280000       2.09490000       0.46080000
H       -0.71650000      -0.39800000      -0.49920000
H        1.95260000      -1.21060000      -2.41700000
H        2.43950000      -2.37720000      -1.17660000
H        0.73350000      -2.24940000      -1.66340000
H        2.77210000      -0.81010000       1.86600000
H        3.28290000       1.60110000       2.23310000
H        1.60090000       2.03140000       1.87020000
H        1.97730000       1.01410000       3.27280000
H       -0.47430000      -1.27860000       2.59460000
H       -0.61980000      -2.25410000       1.13200000
H        0.79090000      -2.44530000       2.18200000
