17
Properties=species:S:1:pos:R:3 gdb_106125=T pbc="F F F"
O        0.55720000       0.16630000       0.91530000
C       -0.13670000       0.51650000      -0.27520000
C       -1.46100000      -0.16500000      -0.22370000
C       -2.47950000      -0.37410000       0.83640000
O       -3.59650000       0.09080000       0.06550000
C       -2.77150000      -0.15850000      -1.10190000
C       -2.68230000      -1.71400000      -1.16580000
O       -1.84800000      -2.17880000      -2.20830000
C       -1.87770000      -1.59640000       0.11780000
H        1.44330000       0.53600000       0.86400000
H       -0.27770000       1.60770000      -0.35030000
H        0.41300000       0.19020000      -1.17220000
H       -2.46620000      -0.21790000       1.90620000
H       -3.01450000       0.45660000      -1.96780000
H       -3.64260000      -2.24760000      -1.13800000
H       -2.35470000      -2.14250000      -3.02630000
H       -1.30420000      -2.35870000       0.62750000
