17
Properties=species:S:1:pos:R:3 gdb_44502=T pbc="F F F"
O        0.04110000       0.09440000       0.65120000
C       -0.02450000       1.16170000       0.10920000
C       -1.32190000       1.90710000      -0.16320000
C       -1.11320000       3.23870000      -0.86340000
C       -0.07740000       3.26910000      -2.03560000
C        0.08990000       4.78710000      -1.75860000
C        0.06470000       4.13230000      -0.35170000
C        1.00500000       3.05090000      -0.94600000
O        1.10850000       1.78360000      -0.30510000
H       -1.96060000       1.23960000      -0.75280000
H       -1.82940000       2.03530000       0.79960000
H       -2.05290000       3.76540000      -1.05400000
H       -0.15150000       2.76780000      -3.00110000
H        1.02950000       5.24800000      -2.07420000
H       -0.76880000       5.41380000      -2.00740000
H        0.15400000       4.62280000       0.61800000
H        2.02890000       3.34340000      -1.18230000
