18
Properties=species:S:1:pos:R:3 gdb_70544=T pbc="F F F"
C        0.01540000       1.50660000       0.04720000
C        0.04200000      -0.00010000       0.05780000
C       -0.88060000      -0.80630000       0.92400000
C        0.61150000      -0.78820000       1.20190000
C        1.48190000      -1.96470000       0.79950000
N        2.13870000      -1.65820000      -0.46840000
C        1.45190000      -1.15100000      -1.54320000
O        1.81800000      -1.23840000      -2.68690000
O        0.27540000      -0.52430000      -1.24180000
H        0.98530000       1.91010000      -0.26110000
H       -0.74290000       1.86840000      -0.65380000
H       -0.22010000       1.89520000       1.04200000
H       -1.53800000      -0.27890000       1.60610000
H       -1.29670000      -1.71030000       0.49170000
H        0.95170000      -0.21970000       2.06050000
H        2.25850000      -2.13880000       1.54900000
H        0.88780000      -2.88750000       0.72980000
H        2.90940000      -2.24250000      -0.75410000
