21
Properties=species:S:1:pos:R:3 gdb_67831=T pbc="F F F"
C       -0.16290000       1.57380000      -0.20180000
C       -0.02050000       0.05380000      -0.04800000
C       -1.38550000      -0.53560000       0.26230000
C       -1.45770000      -0.85580000       1.56390000
C       -0.12270000      -0.72440000       2.31450000
C        0.79020000      -0.61210000       1.10750000
C        2.09200000      -0.02390000       0.49160000
C        1.24920000      -0.60620000      -0.71800000
C        1.02020000      -1.84490000       0.16460000
H        0.77350000       2.07090000      -0.46670000
H       -0.87730000       1.79000000      -1.00490000
H       -0.55740000       2.04000000       0.70800000
H       -2.23390000      -0.53680000      -0.41490000
H       -2.36110000      -1.18530000       2.06760000
H       -0.11930000       0.16210000       2.96370000
H        0.08770000      -1.59170000       2.95020000
H        2.23870000       1.05470000       0.54800000
H        3.02410000      -0.55400000       0.70490000
H        1.54240000      -0.58580000      -1.77040000
H        1.90410000      -2.44830000       0.38920000
H        0.15630000      -2.46880000      -0.06410000
