23
Properties=species:S:1:pos:R:3 gdb_64483=T pbc="F F F"
C       -0.12910000       1.61380000       0.01050000
C       -0.01230000       0.08140000      -0.00660000
C       -1.40770000      -0.56460000       0.02760000
C        0.69680000      -0.36880000      -1.30620000
O        1.89380000       0.33880000      -1.56580000
C        3.08800000      -0.14600000      -0.98360000
C        2.94630000      -0.76660000       0.41210000
O        2.12570000      -0.01790000       1.28320000
C        0.76020000      -0.39590000       1.23990000
H        0.85960000       2.07360000       0.05200000
H       -0.63760000       1.98030000      -0.88790000
H       -0.70410000       1.94590000       0.88190000
H       -2.02560000      -0.20370000      -0.80110000
H       -1.34980000      -1.65680000      -0.04730000
H       -1.93060000      -0.32280000       0.95910000
H        0.86130000      -1.45790000      -1.29960000
H        0.03880000      -0.15070000      -2.15570000
H        3.56750000      -0.89580000      -1.63700000
H        3.75310000       0.72270000      -0.93470000
H        2.57160000      -1.79910000       0.34070000
H        3.94660000      -0.81900000       0.85960000
H        0.30430000       0.03650000       2.13750000
H        0.68100000      -1.49350000       1.32340000
