14
Properties=species:S:1:pos:R:3 gdb_124977=T pbc="F F F"
C        0.41990000       1.43370000      -0.04270000
C        0.05070000      -0.01060000      -0.08660000
C        0.01460000      -0.93180000      -1.09070000
C        0.29700000      -0.93080000      -2.56400000
C        1.27860000       0.06740000      -2.98520000
N        2.04970000       0.85270000      -3.33440000
O       -0.41110000      -2.09840000      -0.59520000
N       -0.64930000      -1.88040000       0.79680000
N       -0.37390000      -0.68290000       1.04630000
H        0.91180000       1.74930000      -0.96340000
H       -0.46750000       2.05800000       0.10570000
H        1.09730000       1.62360000       0.79450000
H        0.65900000      -1.92360000      -2.85280000
H       -0.63140000      -0.76620000      -3.12640000
