20
Properties=species:S:1:pos:R:3 gdb_18044=T pbc="F F F"
C       -0.10570000       1.37890000      -0.37940000
C        1.19810000       1.69540000       0.40010000
C        1.37850000       0.18310000       0.73100000
C        1.36750000      -0.17550000       2.22420000
C        0.00880000       0.01630000       2.85140000
C       -1.11110000      -0.25610000       2.18110000
C       -1.07400000      -0.76920000       0.76290000
C        0.05940000      -0.13730000      -0.05840000
H       -1.00630000       1.82560000       0.05140000
H       -0.07960000       1.62270000      -1.44450000
H        2.00290000       2.12770000      -0.19970000
H        1.05250000       2.32590000       1.28180000
H        2.26790000      -0.24770000       0.26270000
H        1.67620000      -1.22470000       2.34910000
H        2.12390000       0.42050000       2.74900000
H       -0.03720000       0.36000000       3.88140000
H       -2.08000000      -0.13680000       2.65870000
H       -0.94610000      -1.86240000       0.77930000
H       -2.03280000      -0.59040000       0.26120000
H        0.23690000      -0.74070000      -0.95300000
