18
Properties=species:S:1:pos:R:3 gdb_12815=T pbc="F F F"
C        0.01060000       1.48000000      -0.05840000
C       -0.01740000      -0.02220000       0.04710000
C       -0.87450000      -0.69770000       1.08360000
C        0.64560000      -0.73070000       1.20350000
C        1.40220000      -2.01470000       0.88300000
O        1.68800000      -2.13960000      -0.50840000
C        0.54680000      -1.91960000      -1.27890000
O        0.11120000      -0.58000000      -1.24050000
H        0.95530000       1.81450000      -0.49800000
H       -0.80580000       1.83180000      -0.69760000
H       -0.10010000       1.93970000       0.92730000
H       -1.43380000      -0.07140000       1.77010000
H       -1.37180000      -1.62740000       0.82530000
H        1.09260000      -0.10720000       1.97110000
H        2.37300000      -2.02120000       1.38390000
H        0.84230000      -2.90090000       1.22230000
H        0.80770000      -2.12130000      -2.31970000
H       -0.26660000      -2.59960000      -0.96180000
