16
Properties=species:S:1:pos:R:3 gdb_112325=T pbc="F F F"
O       -0.06610000       1.41710000      -0.09010000
C        0.03870000       0.01000000       0.07600000
C       -1.38290000      -0.54190000       0.03200000
N       -2.04740000      -0.22910000      -1.22460000
C       -2.56570000      -1.29170000      -1.91790000
O       -3.19000000      -1.25540000      -2.95370000
C       -2.19470000      -2.52380000      -1.10690000
O       -0.76520000      -2.68510000      -1.01470000
C       -1.45190000      -2.06500000       0.07190000
H        0.81500000       1.77470000      -0.23130000
H        0.62090000      -0.45560000      -0.72930000
H        0.50320000      -0.25000000       1.04010000
H       -1.94620000      -0.12640000       0.87950000
H       -2.00130000       0.69590000      -1.62190000
H       -2.78350000      -3.43140000      -1.17340000
H       -1.43230000      -2.59430000       1.01920000
