18
Properties=species:S:1:pos:R:3 gdb_117463=T pbc="F F F"
C       -0.03430000       1.43530000      -0.25370000
C       -0.05860000      -0.07620000      -0.13580000
O        0.82680000      -0.60450000      -1.14200000
C        0.95740000      -1.93980000      -1.18640000
N        0.33940000      -2.72860000      -0.41610000
C        1.94720000      -2.29310000      -2.28450000
O        2.09260000      -3.70230000      -2.40290000
C        1.54190000      -4.30670000      -3.48180000
O        1.58510000      -5.48550000      -3.64590000
H        0.97500000       1.82460000      -0.09260000
H       -0.37390000       1.75720000      -1.24230000
H       -0.69680000       1.87500000       0.49760000
H        0.27900000      -0.42070000       0.84680000
H       -1.06040000      -0.48730000      -0.29650000
H        0.60290000      -3.69240000      -0.61520000
H        1.61720000      -1.84520000      -3.22990000
H        2.92950000      -1.87580000      -2.04550000
H        1.06800000      -3.58730000      -4.17740000
