21
Properties=species:S:1:pos:R:3 gdb_73210=T pbc="F F F"
C       -0.07150000       1.44230000      -0.16310000
C       -0.05020000      -0.07650000      -0.03090000
C       -1.25690000      -0.72160000       0.69250000
O       -0.39760000      -1.36190000       1.65710000
C        0.75950000      -0.64350000       1.16720000
C        1.96210000      -1.54790000       0.84770000
C        2.60850000      -1.14760000      -0.45660000
C        1.85770000      -0.77860000      -1.49500000
C        0.35410000      -0.75220000      -1.35980000
H        0.89550000       1.81490000      -0.51740000
H       -0.83710000       1.76320000      -0.87900000
H       -0.28670000       1.92380000       0.79650000
H       -1.93990000      -0.00230000       1.16560000
H       -1.84710000      -1.44910000       0.12120000
H        1.05530000       0.13940000       1.87920000
H        2.68630000      -1.54130000       1.66740000
H        1.57750000      -2.57480000       0.77870000
H        3.69140000      -1.18090000      -0.53120000
H        2.30880000      -0.50440000      -2.44380000
H       -0.02770000      -1.78310000      -1.36910000
H       -0.11570000      -0.24130000      -2.20650000
