14
Properties=species:S:1:pos:R:3 gdb_48336=T pbc="F F F"
N       -0.20780000       0.81650000       1.06760000
C       -0.09520000      -0.08800000       0.20190000
C       -1.11910000      -0.98150000      -0.49430000
C        0.11130000      -1.73610000      -1.09260000
N        0.96450000      -0.68020000      -0.50870000
C        0.38940000      -3.10440000      -0.43480000
O       -0.28900000      -3.57120000       0.43590000
C        0.20900000      -1.85580000      -2.54760000
N        0.29420000      -2.00370000      -3.69070000
H        0.69300000       1.20600000       1.34860000
H       -1.71870000      -1.60090000       0.17150000
H       -1.74400000      -0.47820000      -1.23140000
H        1.92730000      -0.78950000      -0.21630000
H        1.30890000      -3.60530000      -0.80490000
