11
Properties=species:S:1:pos:R:3 gdb_1836=T pbc="F F F"
O       -0.03400000      -0.02560000      -0.01380000
C       -0.03880000       1.17800000       0.00320000
C       -1.26400000       2.10510000       0.04640000
N       -0.66450000       3.42060000      -0.00640000
C        0.70660000       3.39230000       0.01810000
O        1.47770000       4.31770000       0.05000000
N        1.04890000       2.02410000      -0.00950000
H       -1.91820000       1.89230000      -0.80630000
H       -1.82940000       1.91900000       0.96750000
H       -1.15360000       4.28580000       0.14250000
H        2.00750000       1.71470000      -0.03080000
