22
Properties=species:S:1:pos:R:3 gdb_97446=T pbc="F F F"
C        0.05530000       1.35700000       0.22000000
N       -0.03330000      -0.06010000       0.49970000
C       -1.03930000      -0.67390000       0.05960000
O       -1.18000000      -1.99850000       0.25360000
C       -2.42000000      -2.57400000      -0.17890000
C       -2.24380000      -4.06450000      -0.23870000
C       -2.37060000      -4.90380000       1.01030000
C       -3.40350000      -5.02680000      -0.08100000
C       -4.83680000      -4.58730000       0.13480000
H        0.12940000       1.91470000       1.16090000
H        0.97170000       1.56580000      -0.34420000
H       -0.79880000       1.75760000      -0.35160000
H       -1.85740000      -0.20540000      -0.51240000
H       -3.21440000      -2.29280000       0.52330000
H       -2.68600000      -2.17160000      -1.16680000
H       -1.47270000      -4.36730000      -0.94150000
H       -1.66250000      -5.70940000       1.16770000
H       -2.66650000      -4.39040000       1.92040000
H       -3.31760000      -5.91600000      -0.70050000
H       -4.91070000      -3.73500000       0.81630000
H       -5.31990000      -4.30540000      -0.80760000
H       -5.42200000      -5.40230000       0.57460000
