17
Properties=species:S:1:pos:R:3 gdb_47464=T pbc="F F F"
O       -0.03020000       0.08890000       0.50140000
C       -0.04800000       1.22410000       0.10610000
C       -1.25790000       2.04910000      -0.32000000
C       -0.76800000       3.49130000      -0.11190000
N        0.69520000       3.47320000      -0.32790000
C        1.19520000       2.13720000      -0.01720000
C        2.01540000       2.07740000       1.29370000
C        3.29360000       2.77020000       1.17170000
N        4.30770000       3.31130000       1.05310000
H       -1.44520000       1.84810000      -1.38320000
H       -2.15020000       1.76260000       0.23960000
H       -1.23640000       4.21290000      -0.78350000
H       -0.98320000       3.81840000       0.91330000
H        0.91760000       3.72900000      -1.28010000
H        1.82520000       1.74710000      -0.82490000
H        1.44250000       2.53120000       2.10930000
H        2.18740000       1.02770000       1.55470000
