12
Properties=species:S:1:pos:R:3 gdb_25211=T pbc="F F F"
N       -0.24890000       1.41790000      -0.24660000
C       -0.08430000       0.18100000      -0.19540000
O        1.18800000      -0.40780000      -0.35060000
C        1.39770000      -1.69710000      -0.68710000
N        0.64090000      -2.53440000      -1.27090000
C       -0.67900000      -2.27870000      -1.61310000
N       -1.55100000      -1.59430000      -0.97820000
C       -1.19150000      -0.82360000       0.12300000
O       -1.71290000      -0.86730000       1.20390000
H        0.61480000       1.91530000      -0.47030000
H        2.41560000      -1.97690000      -0.42640000
H       -0.99850000      -2.80820000      -2.50950000
