15
Properties=species:S:1:pos:R:3 gdb_19258=T pbc="F F F"
O        0.47470000       1.25020000       0.08480000
C        0.11120000      -0.08930000      -0.05560000
C       -1.36250000      -0.50420000      -0.04020000
C       -2.07850000      -0.08220000      -1.25390000
N       -1.22950000      -1.29150000      -1.34860000
C        0.21770000      -0.80470000      -1.44270000
C        0.48760000       0.01810000      -2.67190000
O        0.33730000       1.22100000      -2.72480000
H        0.28090000       1.69400000      -0.75290000
H        0.67250000      -0.65070000       0.69640000
H       -1.87730000      -0.93040000       0.81450000
H       -3.13340000      -0.33040000      -1.31180000
H       -1.79890000       0.82370000      -1.78270000
H        0.86900000      -1.68210000      -1.43500000
H        0.80300000      -0.54450000      -3.57530000
