18
Properties=species:S:1:pos:R:3 gdb_102947=T pbc="F F F"
C       -0.31000000       1.14510000       0.27260000
O       -0.31770000      -0.26160000       0.42920000
C        0.67130000      -0.74870000       1.31670000
C        0.30700000      -2.20740000       1.62700000
O       -0.88560000      -2.28650000       2.38660000
C       -2.05410000      -2.32720000       1.70560000
N       -3.14330000      -2.27170000       2.33850000
C        2.02380000      -0.66250000       0.75320000
C        3.12840000      -0.61440000       0.28200000
H        0.63760000       1.49760000      -0.15560000
H       -1.12620000       1.39170000      -0.40940000
H       -0.47790000       1.65510000       1.23240000
H        0.63510000      -0.18510000       2.26350000
H        0.22070000      -2.76180000       0.68440000
H        1.09550000      -2.65990000       2.23150000
H       -1.92390000      -2.42440000       0.62190000
H       -3.92260000      -2.34580000       1.68790000
H        4.10650000      -0.56280000      -0.12950000
