21
Properties=species:S:1:pos:R:3 gdb_123041=T pbc="F F F"
O        0.16380000       1.12750000      -0.55080000
C       -0.03440000      -0.21120000      -0.14230000
C       -1.50900000      -0.50300000       0.09080000
O       -2.17110000      -0.23430000      -1.13030000
C       -3.58380000      -0.33440000      -1.04650000
C       -4.17560000       0.06990000      -2.36910000
C       -4.16780000      -0.91410000      -3.52400000
C       -5.46080000      -0.54640000      -2.84470000
O       -6.08320000      -1.46340000      -1.98970000
H       -0.48370000       1.27800000      -1.25010000
H        0.35710000      -0.92180000      -0.88810000
H        0.52540000      -0.35690000       0.78750000
H       -1.65750000      -1.55090000       0.40090000
H       -1.90020000       0.14850000       0.88910000
H       -3.88360000      -1.36050000      -0.79340000
H       -3.95770000       0.32160000      -0.24320000
H       -4.02770000       1.11580000      -2.62210000
H       -3.97400000      -0.54960000      -4.52660000
H       -3.76950000      -1.90070000      -3.31110000
H       -6.14820000       0.10500000      -3.38410000
H       -6.44670000      -2.17200000      -2.53060000
