14
Properties=species:S:1:pos:R:3 gdb_131530=T pbc="F F F"
O        0.38770000       1.28600000       0.23390000
C        0.06020000      -0.04920000       0.06950000
C       -1.46950000      -0.49010000      -0.02240000
N       -1.09090000      -1.25250000      -1.23810000
C        0.14670000      -0.68100000      -1.32380000
N        0.67420000      -0.64470000      -2.49220000
O       -0.34690000      -1.30510000      -3.29080000
C       -1.49460000      -1.53690000      -2.53740000
N       -2.61860000      -1.93900000      -2.94130000
H        0.08460000       1.78480000      -0.53380000
H        0.59980000      -0.61310000       0.83270000
H       -1.86940000      -1.10500000       0.78420000
H       -2.13220000       0.35350000      -0.23410000
H       -2.62070000      -2.06050000      -3.95170000
