20
Properties=species:S:1:pos:R:3 gdb_72610=T pbc="F F F"
C       -0.12990000       1.59310000      -0.17810000
C       -0.01680000       0.10530000       0.03640000
C        0.91880000      -0.70950000      -0.87110000
O        1.49720000      -1.41360000       0.24980000
C        0.68290000      -0.69420000       1.20330000
C        1.48720000      -0.20290000       2.37810000
C       -0.65810000      -1.38870000       1.39310000
C       -1.73620000      -0.40290000       1.59980000
N       -1.29870000      -0.65850000       0.21600000
H        0.85980000       2.05920000      -0.21540000
H       -0.63460000       1.79470000      -1.13020000
H       -0.70460000       2.08370000       0.61280000
H        0.40930000      -1.37540000      -1.57590000
H        1.67650000      -0.11680000      -1.39910000
H        2.29710000       0.45320000       2.04620000
H        0.86110000       0.34140000       3.09080000
H        1.93910000      -1.05470000       2.89910000
H       -0.78680000      -2.45650000       1.53640000
H       -2.73240000      -0.78310000       1.80220000
H       -1.52120000       0.55620000       2.06580000
