17
Properties=species:S:1:pos:R:3 gdb_6700=T pbc="F F F"
C       -0.04240000       1.48020000       0.03410000
N        0.03480000       0.02760000       0.02330000
C        0.83310000      -0.47830000       1.13070000
C       -1.29960000      -0.56250000      -0.01400000
C       -1.29320000      -2.00060000      -0.25560000
C       -1.32630000      -3.19250000      -0.44990000
C       -1.32160000      -4.61190000      -0.68800000
O       -2.31510000      -5.29060000      -0.81440000
H        0.96790000       1.89770000      -0.00130000
H       -0.58660000       1.83260000      -0.84790000
H       -0.54600000       1.88500000       0.93330000
H        0.41330000      -0.21640000       2.12120000
H        0.90680000      -1.56700000       1.06880000
H        1.84290000      -0.06260000       1.06980000
H       -1.87550000      -0.37140000       0.91620000
H       -1.86620000      -0.08150000      -0.82170000
H       -0.30660000      -5.05510000      -0.75000000
