19
Properties=species:S:1:pos:R:3 gdb_106649=T pbc="F F F"
C       -0.23950000       1.45210000       0.03640000
C        0.22190000      -0.01140000      -0.04520000
C        0.80180000      -0.52340000       1.23480000
C        0.06570000      -1.02960000       2.44190000
C        1.08950000      -1.93590000       1.80530000
O        0.77050000      -3.21910000       1.44060000
C        2.48210000      -1.43740000       2.01640000
N        3.55550000      -2.08680000       2.15640000
N        2.14400000      -0.06810000       1.74670000
H        0.59010000       2.11720000       0.29670000
H       -0.64910000       1.78460000      -0.92210000
H       -1.01390000       1.57500000       0.79960000
H       -0.62380000      -0.65340000      -0.31750000
H        0.96330000      -0.12220000      -0.84850000
H        0.22720000      -0.58270000       3.41940000
H       -0.94740000      -1.37070000       2.24470000
H        1.56140000      -3.60230000       1.04020000
H        4.37560000      -1.47820000       2.12600000
H        2.74290000       0.36470000       1.04890000
