13
Properties=species:S:1:pos:R:3 gdb_20991=T pbc="F F F"
C       -0.08790000       1.44030000       0.03040000
N        0.02030000      -0.00260000       0.04630000
C        0.02360000      -0.79210000      -1.10170000
O        0.00500000      -0.43520000      -2.24770000
O        0.04460000      -2.07600000      -0.65890000
N        0.06530000      -2.10610000       0.77190000
C        0.03000000      -0.85650000       1.11720000
N       -0.07440000      -0.40740000       2.41400000
H        0.83110000       1.91780000       0.38690000
H       -0.25300000       1.73150000      -1.00850000
H       -0.93030000       1.76980000       0.64490000
H        0.01430000      -1.16410000       3.08040000
H        0.53670000       0.36570000       2.64390000
