17
Properties=species:S:1:pos:R:3 gdb_9207=T pbc="F F F"
C        0.36930000       1.38270000      -0.10280000
C       -0.09470000      -0.06930000      -0.19420000
C        0.52940000      -0.83330000      -1.35000000
O        1.15550000      -0.30390000      -2.23550000
C        0.33640000      -2.35470000      -1.31570000
O        0.56490000      -2.98060000      -2.55460000
C        1.84980000      -3.05200000      -2.97790000
N        2.10240000      -3.55870000      -4.10320000
H        1.44620000       1.43900000       0.07780000
H        0.16730000       1.91130000      -1.03700000
H       -0.14380000       1.90130000       0.71130000
H        0.10330000      -0.61800000       0.73700000
H       -1.18480000      -0.12490000      -0.32950000
H        0.99220000      -2.75710000      -0.52590000
H       -0.69090000      -2.59810000      -1.02880000
H        2.57390000      -2.66210000      -2.25270000
H        3.10690000      -3.55790000      -4.26600000
