13
Properties=species:S:1:pos:R:3 gdb_99427=T pbc="F F F"
N        0.05440000       1.47240000      -0.03250000
C        0.05580000       0.04010000      -0.03460000
C        0.86920000      -0.51710000       1.22670000
C        0.22140000      -0.03060000       2.45760000
N       -0.33340000       0.35130000       3.39430000
C        0.85260000      -1.99060000       1.19560000
N        0.80010000      -3.14020000       1.10990000
C        2.25620000      -0.02590000       1.14750000
N        3.33720000       0.36000000       1.03090000
H        0.53320000       1.88340000      -0.81930000
H       -0.86130000       1.88070000       0.07740000
H       -0.94580000      -0.39150000       0.04380000
H        0.54270000      -0.38870000      -0.91480000
