19
Properties=species:S:1:pos:R:3 gdb_95177=T pbc="F F F"
C        0.08380000       1.58510000       0.00140000
C        0.08290000       0.05310000      -0.03040000
C        0.71810000      -0.52370000      -1.30630000
C        0.74500000      -2.05730000      -1.30920000
C        1.45700000      -2.58790000      -0.08480000
O        2.58250000      -1.83130000       0.35090000
C        1.40770000      -1.83450000       1.18470000
C        0.65640000      -0.52990000       1.26570000
O        0.46380000      -0.01590000       2.34470000
H        1.10430000       1.97390000      -0.08070000
H       -0.49960000       1.98820000      -0.83160000
H       -0.34070000       1.94650000       0.93960000
H       -0.96730000      -0.28560000      -0.00440000
H        0.16150000      -0.16280000      -2.17740000
H        1.74170000      -0.14890000      -1.40370000
H       -0.27430000      -2.46600000      -1.32620000
H        1.24610000      -2.42770000      -2.21090000
H        1.59090000      -3.66790000      -0.01780000
H        1.52980000      -2.33770000       2.14190000
