23
Properties=species:S:1:pos:R:3 gdb_114511=T pbc="F F F"
C        0.04130000       1.57100000      -0.20720000
C        0.01280000       0.06170000      -0.00220000
C        0.73160000      -0.88910000      -1.00580000
C        1.18260000      -1.79110000       0.18150000
C        2.65280000      -1.60040000       0.61810000
C        2.22040000      -0.42700000       1.55170000
C        2.89730000       0.91540000       1.34480000
O        4.21850000       0.78970000       1.85990000
C        0.71590000      -0.66730000       1.17960000
H        1.05260000       1.95140000      -0.37220000
H       -0.55720000       1.84880000      -1.08260000
H       -0.37820000       2.09800000       0.65750000
H       -1.03850000      -0.24780000       0.05220000
H        0.08990000      -1.35630000      -1.75720000
H        1.57580000      -0.42360000      -1.52660000
H        0.76730000      -2.79950000       0.19960000
H        3.07300000      -2.45030000       1.16130000
H        3.34950000      -1.33430000      -0.18360000
H        2.37880000      -0.68820000       2.60270000
H        2.92500000       1.17740000       0.27660000
H        2.33960000       1.70990000       1.86670000
H        4.69440000       1.60280000       1.66700000
H        0.08230000      -0.86530000       2.04680000
