21
Properties=species:S:1:pos:R:3 gdb_109546=T pbc="F F F"
C        0.04590000       1.70770000      -0.08260000
C        0.04000000       0.17630000      -0.01240000
C        0.69280000      -0.47140000      -1.23240000
C        0.71650000      -2.05330000      -1.23340000
C        0.67900000      -2.86930000       0.04900000
C       -0.55890000      -1.94310000      -2.06700000
O       -1.61110000      -2.52570000      -2.06120000
C       -0.23710000      -0.52210000      -2.51540000
O       -1.32280000       0.34230000      -2.67240000
H        1.06990000       2.09260000      -0.14790000
H       -0.50570000       2.05550000      -0.95880000
H       -0.41500000       2.14210000       0.81000000
H        0.56700000      -0.15260000       0.89130000
H       -0.99320000      -0.18030000       0.09000000
H        1.66930000      -0.02020000      -1.42470000
H        1.54060000      -2.38600000      -1.87580000
H       -0.16110000      -2.57870000       0.68490000
H        0.56410000      -3.93230000      -0.18280000
H        1.60290000      -2.74700000       0.62280000
H        0.38800000      -0.50640000      -3.41740000
H       -2.11720000      -0.17320000      -2.47970000
