19
Properties=species:S:1:pos:R:3 gdb_120096=T pbc="F F F"
C       -0.00360000       1.48330000       0.24150000
C        0.49370000       0.04930000       0.19970000
O        0.11630000      -0.58430000       1.41100000
C        0.51310000      -1.90550000       1.49090000
C        1.91610000      -2.46580000       1.62090000
C        2.84260000      -1.71680000       2.62250000
O        2.18780000      -0.54580000       3.11790000
C        1.85300000      -1.81730000       3.68540000
C        0.86730000      -2.59950000       2.76040000
H        0.43410000       2.00900000       1.09440000
H        0.27420000       2.01060000      -0.67620000
H       -1.09240000       1.51160000       0.34250000
H        0.06270000      -0.48910000      -0.66180000
H        1.58800000       0.01840000       0.08980000
H       -0.07210000      -2.56100000       0.83440000
H        2.28150000      -3.24300000       0.96090000
H        3.92560000      -1.74220000       2.63600000
H        1.95040000      -1.93650000       4.75730000
H        0.35830000      -3.49380000       3.09860000
