21
Properties=species:S:1:pos:R:3 gdb_42024=T pbc="F F F"
C       -0.04040000       1.41790000       0.04970000
C        1.41910000       1.94950000      -0.02020000
C        2.21070000       0.71700000       0.42770000
C        3.67530000       0.49010000       0.07320000
C        4.03250000      -0.93780000       0.53160000
O        3.15860000      -1.92870000       0.00780000
C        1.79100000      -1.74330000       0.35710000
C        1.35710000      -0.39020000      -0.18580000
O        0.02550000      -0.01830000       0.11170000
H       -0.56430000       1.76670000       0.94650000
H       -0.62640000       1.72470000      -0.82580000
H        1.68410000       2.22690000      -1.04630000
H        1.57100000       2.82690000       0.61320000
H        2.10410000       0.62490000       1.51940000
H        3.83010000       0.58140000      -1.00880000
H        4.34070000       1.20950000       0.56470000
H        5.03370000      -1.22170000       0.19580000
H        4.02260000      -0.97440000       1.63470000
H        1.24140000      -2.57350000      -0.09410000
H        1.64590000      -1.77960000       1.44920000
H        1.51920000      -0.40890000      -1.27890000
