21
Properties=species:S:1:pos:R:3 gdb_88370=T pbc="F F F"
C       -1.36920000       0.92490000       0.72240000
C       -0.49670000      -0.27430000       0.41610000
C        0.76820000      -0.15670000      -0.40140000
C        0.84620000      -0.55810000       1.05360000
C        1.56770000       0.26920000       2.12290000
C        0.91540000       0.06930000       3.49790000
O        2.89980000      -0.25090000       2.26420000
C        1.66000000       1.70460000       1.80290000
C        1.80530000       2.87330000       1.55800000
H       -0.78130000       1.82710000       0.89860000
H       -2.04670000       1.12310000      -0.11580000
H       -1.98880000       0.74760000       1.60900000
H       -1.07220000      -1.17860000       0.23020000
H        0.98230000      -0.89840000      -1.16350000
H        1.09480000       0.84900000      -0.64690000
H        1.04340000      -1.60990000       1.24440000
H        0.87760000      -0.99960000       3.72560000
H        1.50590000       0.57190000       4.26710000
H       -0.09940000       0.47180000       3.50430000
H        3.33840000      -0.14080000       1.41280000
H        1.92680000       3.90690000       1.34500000
