18
Properties=species:S:1:pos:R:3 gdb_47912=T pbc="F F F"
N       -0.07320000       1.14020000      -0.98670000
C       -0.02070000       0.13780000      -0.21640000
C       -1.29600000      -0.64150000       0.07340000
O       -1.73470000      -0.52720000       1.41250000
C       -1.21930000      -1.43350000       2.37110000
C        0.13170000      -1.02150000       2.96580000
O        1.29970000      -1.53820000       2.33170000
C        1.34310000      -1.51120000       0.94710000
O        1.15170000      -0.21080000       0.40220000
H        0.85550000       1.55920000      -1.07970000
H       -2.06280000      -0.17870000      -0.54870000
H       -1.21120000      -1.69730000      -0.22340000
H       -1.95290000      -1.42690000       3.18420000
H       -1.17870000      -2.46010000       1.97450000
H        0.16640000       0.07540000       2.99080000
H        0.20060000      -1.38910000       3.99380000
H        2.35840000      -1.81150000       0.67760000
H        0.62850000      -2.20980000       0.49500000
