19
Properties=species:S:1:pos:R:3 gdb_70853=T pbc="F F F"
C       -0.00260000       1.46070000       0.09840000
C       -0.05200000      -0.04180000       0.00720000
C       -1.28960000      -0.77050000      -0.48000000
C       -0.78940000      -2.20060000      -0.36640000
O       -1.60270000      -3.29260000      -0.63980000
C        0.17810000      -2.33660000       0.78660000
C        0.67230000      -0.89510000       1.04180000
C        1.19970000      -0.82340000      -0.38150000
C        0.70950000      -2.26470000      -0.63920000
H        0.96990000       1.80120000       0.46980000
H       -0.16370000       1.92570000      -0.88100000
H       -0.77010000       1.84480000       0.78010000
H       -2.16250000      -0.59450000       0.15900000
H       -1.55250000      -0.50200000      -1.51160000
H       -1.72250000      -3.34440000      -1.59450000
H        0.16570000      -3.17120000       1.47360000
H        1.09770000      -0.50420000       1.95680000
H        2.10250000      -0.36200000      -0.76040000
H        1.18060000      -3.03570000      -1.23380000
