16
Properties=species:S:1:pos:R:3 gdb_107611=T pbc="F F F"
O       -0.00450000       1.37790000       0.29750000
C        0.06430000      -0.00370000       0.02550000
C       -1.30860000      -0.60730000      -0.09990000
O       -2.01630000      -1.02140000       1.08920000
C       -1.74610000      -1.99710000       0.08630000
C       -2.94010000      -2.25950000      -0.82190000
N       -3.17720000      -0.95340000      -1.42390000
C       -2.27550000       0.01330000      -1.09590000
O       -2.22980000       1.15220000      -1.52640000
H       -0.60980000       1.75430000      -0.35990000
H        0.62490000      -0.21430000      -0.90160000
H        0.59670000      -0.48070000       0.85440000
H       -1.08160000      -2.80900000       0.36580000
H       -2.69590000      -3.01480000      -1.57940000
H       -3.80730000      -2.60780000      -0.24930000
H       -3.98940000      -0.73730000      -1.97970000
