20
Properties=species:S:1:pos:R:3 gdb_103407=T pbc="F F F"
C       -0.12890000       1.64050000       0.01510000
C        0.00820000       0.12700000      -0.01300000
C       -1.35460000      -0.56080000      -0.16130000
O       -1.94510000      -0.36090000      -1.43480000
C        1.06350000      -0.49940000      -0.97020000
O        1.81780000       0.45140000      -1.69220000
C        1.70210000      -1.11970000       0.27430000
C        2.06510000      -0.07010000       1.24450000
N        0.66030000      -0.50780000       1.20290000
H        0.83520000       2.15000000       0.01000000
H       -0.66780000       1.99270000      -0.87110000
H       -0.68590000       1.94650000       0.90760000
H       -1.22010000      -1.64150000      -0.05400000
H       -2.01350000      -0.23250000       0.65610000
H       -2.22850000       0.55610000      -1.49550000
H        0.61310000      -1.23770000      -1.64300000
H        2.45910000      -0.01690000      -2.23630000
H        2.01370000      -2.15410000       0.38130000
H        2.56800000      -0.38530000       2.15370000
H        2.34680000       0.91500000       0.88700000
