18
Properties=species:S:1:pos:R:3 gdb_104473=T pbc="F F F"
C        0.53300000       1.12510000      -0.30830000
N        0.11500000      -0.11540000       0.35660000
C       -1.26800000      -0.44410000       0.20480000
C       -2.21350000       0.20510000       1.13650000
O       -3.41170000       0.01720000       1.12190000
C       -1.86750000      -0.84730000      -1.18440000
O       -1.03480000      -0.82390000      -2.29190000
C       -1.65080000      -1.89570000      -0.16070000
O       -0.61880000      -2.78130000      -0.47280000
H        1.60380000       1.27100000      -0.13840000
H        0.33590000       1.13420000      -1.38750000
H        0.01250000       1.97470000       0.14560000
H        0.68400000      -0.89030000       0.03730000
H       -1.73350000       0.88350000       1.87480000
H       -2.88210000      -0.51160000      -1.37590000
H       -0.53350000      -1.64910000      -2.29640000
H       -2.50770000      -2.30830000       0.36680000
H       -0.30990000      -3.20440000       0.33520000
