19
Properties=species:S:1:pos:R:3 gdb_71358=T pbc="F F F"
C        0.03370000       1.57350000      -0.08880000
C        0.00680000       0.06570000      -0.01440000
C        0.56080000      -0.93600000      -1.04080000
N        0.00960000      -1.89020000       0.01140000
C        0.58530000      -0.90160000       1.06930000
C       -0.35340000      -0.99870000       2.25750000
N       -1.26530000       0.16610000       2.37780000
C       -1.66050000      -1.00970000       1.56280000
C       -1.20220000      -0.91660000       0.11930000
H        1.06720000       1.93320000      -0.15530000
H       -0.49320000       1.92000000      -0.98560000
H       -0.43730000       2.01610000       0.78930000
H        0.05700000      -1.01130000      -2.01000000
H        1.64690000      -0.99790000      -1.16510000
H        1.66300000      -0.97660000       1.22560000
H       -0.12610000      -1.60940000       3.12270000
H       -1.74230000       0.10350000       3.27620000
H       -2.49670000      -1.62930000       1.86270000
H       -1.93360000      -1.00680000      -0.68580000
