17
Properties=species:S:1:pos:R:3 gdb_56520=T pbc="F F F"
C        0.05640000       1.54990000       0.17670000
C        0.01650000       0.01910000       0.06580000
N        0.70890000      -0.56600000       1.20890000
C       -1.39450000      -0.43210000      -0.03030000
N       -2.48040000      -0.82570000      -0.09350000
C        0.73330000      -0.49830000      -1.24630000
N        0.09990000      -0.17970000      -2.51390000
C        2.12430000      -0.02100000      -1.26120000
N        3.20620000       0.38100000      -1.29580000
H        1.09480000       1.87630000       0.26490000
H       -0.40160000       2.02000000      -0.69660000
H       -0.49710000       1.88100000       1.05950000
H        0.36610000      -0.17140000       2.07880000
H        0.56210000      -1.57000000       1.25460000
H        0.76740000      -1.59220000      -1.16250000
H       -0.85000000      -0.53680000      -2.53430000
H        0.07140000       0.82090000      -2.67620000
