21
Properties=species:S:1:pos:R:3 gdb_58949=T pbc="F F F"
C       -0.06710000       1.44690000      -0.17230000
C        0.01370000      -0.06650000       0.09380000
C        0.65800000      -0.36850000       1.45490000
C       -1.35170000      -0.68230000      -0.01710000
O       -2.34980000      -0.26770000       0.94650000
C       -2.83930000      -1.63860000       1.05570000
C       -1.91450000      -2.10650000      -0.05420000
C       -2.08190000      -1.15300000      -1.23050000
O       -3.30850000      -0.61270000      -1.60690000
H        0.92490000       1.90480000      -0.11080000
H       -0.47830000       1.65390000      -1.16510000
H       -0.71050000       1.93220000       0.56840000
H        0.62550000      -0.52570000      -0.69470000
H        1.65380000       0.08050000       1.52230000
H        0.04490000       0.03660000       2.26550000
H        0.76030000      -1.44670000       1.61410000
H       -2.60070000      -2.04660000       2.04280000
H       -3.91730000      -1.70510000       0.87130000
H       -1.42260000      -3.06820000      -0.12140000
H       -1.46250000      -1.39850000      -2.08910000
H       -3.54710000       0.01030000      -0.90650000
