21
Properties=species:S:1:pos:R:3 gdb_95383=T pbc="F F F"
O       -0.06270000       1.47260000      -0.13210000
C       -0.01200000       0.10700000       0.25500000
C        0.26260000      -0.11370000       1.75710000
C       -0.40590000      -1.46120000       2.05610000
C       -1.70930000      -1.39660000       1.24920000
O       -2.70490000      -0.64890000       1.95670000
C       -3.02800000       0.55500000       1.26310000
C       -2.58670000       0.34330000      -0.18630000
C       -1.37760000      -0.59240000      -0.03560000
H        0.77990000       1.87630000       0.09740000
H        0.76610000      -0.41090000      -0.32740000
H        1.32960000      -0.08970000       2.00050000
H       -0.22850000       0.68440000       2.32470000
H        0.21180000      -2.28990000       1.68690000
H       -0.59800000      -1.63400000       3.11750000
H       -2.12070000      -2.39240000       1.04520000
H       -4.10370000       0.73140000       1.36870000
H       -2.49790000       1.40920000       1.71000000
H       -3.37270000      -0.16600000      -0.75260000
H       -2.33680000       1.27520000      -0.69380000
H       -1.27820000      -1.24350000      -0.90620000
