16
Properties=species:S:1:pos:R:3 gdb_49330=T pbc="F F F"
O       -0.14770000       0.04160000      -0.00100000
C       -0.02520000       1.23860000       0.00690000
N        1.17710000       1.91750000      -0.00120000
C        2.54080000       1.52520000      -0.01850000
O        3.06780000       0.45750000      -0.03330000
C        2.99100000       3.00100000      -0.01270000
C        1.49770000       3.34910000       0.00680000
C        0.76200000       4.41430000      -0.73790000
C        0.77890000       4.40220000       0.78450000
H       -0.88350000       1.94130000       0.02180000
H        3.55770000       3.28410000       0.87660000
H        3.53750000       3.29760000      -0.91030000
H        1.34400000       5.16840000      -1.25720000
H       -0.16540000       4.14600000      -1.23310000
H       -0.13740000       4.12600000       1.29590000
H        1.37250000       5.14800000       1.30260000
