21
Properties=species:S:1:pos:R:3 gdb_84145=T pbc="F F F"
C       -0.68810000       1.35310000       0.10370000
C       -0.04380000      -0.03500000      -0.01750000
C        1.00970000      -0.16410000      -1.09460000
C        2.06160000      -0.89480000      -0.72230000
C        3.25320000      -1.26950000      -1.54510000
C        1.89830000      -1.38560000       0.70240000
C        0.71520000      -0.54680000       1.25950000
C        1.26330000       0.60290000       2.07880000
O        0.85280000       0.93550000       3.16130000
H        0.05890000       2.14030000       0.24710000
H       -1.24850000       1.59230000      -0.80580000
H       -1.38380000       1.39340000       0.94740000
H       -0.85560000      -0.74830000      -0.22700000
H        0.87420000       0.26500000      -2.08280000
H        3.20050000      -0.84390000      -2.55060000
H        4.18340000      -0.92500000      -1.07560000
H        3.34080000      -2.35950000      -1.64100000
H        1.66860000      -2.45960000       0.72480000
H        2.81530000      -1.26290000       1.29560000
H        0.05240000      -1.11610000       1.91490000
H        2.11760000       1.13980000       1.60260000
