21
Properties=species:S:1:pos:R:3 gdb_88374=T pbc="F F F"
C       -1.61510000      -1.08650000       2.66390000
C       -0.76290000      -1.14610000       1.41790000
N       -0.67570000       0.05480000       0.56760000
C        0.54310000      -0.46350000       1.18620000
C        1.34560000       0.43630000       2.13340000
C        2.17850000      -0.44350000       3.09350000
C        2.27650000       1.32920000       1.27560000
C        0.49540000       1.33410000       2.93050000
N       -0.10490000       2.06940000       3.58990000
H       -1.56910000      -0.11100000       3.14650000
H       -2.66060000      -1.28590000       2.40500000
H       -1.30020000      -1.85210000       3.38170000
H       -0.84530000      -2.09670000       0.88870000
H       -0.72180000      -0.17580000      -0.42030000
H        1.23200000      -1.01490000       0.54380000
H        2.82260000      -1.11110000       2.51260000
H        2.81240000       0.17320000       3.73580000
H        1.53180000      -1.05400000       3.72820000
H        1.69040000       1.93540000       0.58080000
H        2.86790000       1.99710000       1.90710000
H        2.96270000       0.69910000       0.70080000
