23
Properties=species:S:1:pos:R:3 gdb_72405=T pbc="F F F"
C       -0.00180000       1.48120000       0.02170000
C       -0.00690000      -0.03860000       0.00260000
C        0.63540000      -0.66270000      -1.26800000
C        0.08920000      -2.12140000      -1.28090000
C       -0.79570000      -2.17160000      -0.01160000
O       -1.78050000      -3.18000000      -0.00870000
C        0.12900000      -2.15300000       1.22980000
C        0.67520000      -0.69420000       1.23620000
C       -1.37910000      -0.74910000       0.01550000
H        1.02240000       1.87270000       0.01090000
H       -0.52130000       1.89280000      -0.85080000
H       -0.49410000       1.87040000       0.91980000
H        0.31620000      -0.11660000      -2.16170000
H        1.72840000      -0.61390000      -1.23540000
H       -0.53190000      -2.31480000      -2.16040000
H        0.88120000      -2.87800000      -1.26110000
H       -1.33360000      -4.03280000      -0.02630000
H       -0.46400000      -2.36860000       2.12340000
H        0.91960000      -2.90850000       1.16600000
H        1.76650000      -0.64410000       1.17010000
H        0.38470000      -0.17080000       2.15300000
H       -1.96530000      -0.55100000       0.91840000
H       -1.99360000      -0.52860000      -0.86320000
