13
Properties=species:S:1:pos:R:3 gdb_129333=T pbc="F F F"
N       -0.59920000      -2.98500000       0.40540000
C       -1.62410000      -2.31120000       0.08350000
N       -1.60070000      -0.93020000       0.25510000
C       -2.61390000      -0.06720000      -0.03980000
C       -2.49340000       1.31950000       0.17050000
N       -3.48770000       2.12080000      -0.12430000
N       -4.61930000       1.59620000      -0.62880000
N       -4.72970000       0.30930000      -0.82340000
N       -3.75300000      -0.54520000      -0.54170000
H       -0.75250000      -3.97580000       0.22900000
H       -2.56680000      -2.67240000      -0.32780000
H       -0.73970000      -0.55960000       0.63560000
H       -1.59050000       1.77110000       0.57690000
