13
Properties=species:S:1:pos:R:3 gdb_3119=T pbc="F F F"
N        0.04790000      -1.16370000       0.05930000
C        0.05080000      -0.00730000       0.03630000
C        0.03240000       1.42130000      -0.04870000
C       -0.71790000       2.24590000      -1.11460000
C        0.44910000       3.28750000      -1.08810000
C        1.16070000       2.43480000      -0.02870000
N        0.33170000       2.21520000       1.14050000
H       -0.79230000       1.73090000      -2.07350000
H       -1.71340000       2.58620000      -0.81540000
H        0.98450000       3.32950000      -2.03840000
H        0.20480000       4.30700000      -0.77520000
H        2.22590000       2.26190000       0.06710000
H       -0.35930000       2.94840000       1.29390000
