16
Properties=species:S:1:pos:R:3 gdb_131792=T pbc="F F F"
O       -0.13050000       1.45320000       0.00180000
C        0.04220000       0.04500000       0.00810000
C       -1.35820000      -0.56010000       0.00790000
C       -1.35280000      -2.05090000       0.01400000
N       -0.29040000      -2.79830000       0.01830000
N       -0.77660000      -4.08800000       0.02290000
C       -2.15200000      -4.17400000       0.02170000
O       -2.87690000      -5.14410000       0.02470000
N       -2.49820000      -2.81480000       0.01580000
H        0.73990000       1.86130000       0.00250000
H        0.59650000      -0.30400000      -0.87410000
H        0.59300000      -0.29660000       0.89540000
H       -1.90600000      -0.18650000       0.88240000
H       -1.90270000      -0.19360000      -0.87180000
H       -0.14340000      -4.86750000       0.02710000
H       -3.45060000      -2.49340000       0.01290000
