19
Properties=species:S:1:pos:R:3 gdb_61429=T pbc="F F F"
C       -0.22230000       1.40910000      -0.05590000
N        0.07760000      -0.01380000      -0.11000000
C       -0.03920000      -0.79430000       1.09970000
C       -1.48690000      -1.01900000       1.55440000
C       -1.67340000      -2.00620000       2.68960000
O       -2.40960000      -0.44000000       1.03200000
C        0.03740000      -0.72660000      -1.29540000
N       -0.05840000       0.03470000      -2.44570000
O        0.06400000      -1.94700000      -1.33140000
H        0.52590000       1.99590000      -0.60500000
H       -1.22050000       1.63870000      -0.44220000
H       -0.18040000       1.73860000       0.98370000
H        0.43120000      -1.76550000       0.92810000
H        0.50550000      -0.30360000       1.91810000
H       -0.96300000      -1.81810000       3.50190000
H       -2.69590000      -1.95520000       3.06530000
H       -1.47530000      -3.01910000       2.31970000
H        0.27020000       0.98580000      -2.45360000
H        0.13450000      -0.49630000      -3.27990000
