19
Properties=species:S:1:pos:R:3 gdb_57438=T pbc="F F F"
C        0.21380000       1.61300000       0.30490000
C        0.01840000       0.11760000       0.04850000
C        0.63420000      -0.72880000       1.17710000
O       -1.37910000      -0.10690000      -0.01930000
C        0.67420000      -0.28890000      -1.27320000
N        0.03090000      -1.39700000      -1.97810000
C        0.05920000      -0.06500000      -2.61940000
C       -1.19900000       0.60530000      -2.85300000
N       -2.16590000       1.17420000      -3.13180000
H        1.27670000       1.86920000       0.35570000
H       -0.25590000       2.20000000      -0.48810000
H       -0.25270000       1.88780000       1.25470000
H        0.13640000      -0.49320000       2.12120000
H        0.49650000      -1.79620000       0.97470000
H        1.70660000      -0.53610000       1.29170000
H       -1.50490000      -0.96710000      -0.44390000
H        1.76270000      -0.25730000      -1.26660000
H        0.69780000      -2.01970000      -2.42420000
H        0.75900000       0.07830000      -3.43940000
