19
Properties=species:S:1:pos:R:3 gdb_57900=T pbc="F F F"
C        0.13750000       1.33150000      -0.43290000
C        0.06540000      -0.09120000       0.15640000
O        0.71910000      -0.16680000       1.39620000
C       -1.39550000      -0.49940000       0.32810000
O       -1.87230000      -0.59000000       1.44140000
C       -2.26330000      -0.72070000      -0.87770000
O       -1.65440000      -0.71000000      -2.16900000
C       -2.19180000      -1.94900000      -1.70270000
C       -1.25210000      -3.10080000      -1.46170000
H        1.18680000       1.63170000      -0.48470000
H       -0.29150000       1.36880000      -1.43720000
H       -0.38870000       2.03930000       0.21510000
H        0.54660000      -0.77640000      -0.55390000
H        0.01200000      -0.25860000       2.05460000
H       -3.23020000      -0.22180000      -0.80540000
H       -3.12420000      -2.22340000      -2.19960000
H       -0.35360000      -2.80120000      -0.91960000
H       -1.76080000      -3.87900000      -0.88360000
H       -0.94650000      -3.53860000      -2.41740000
