17
Properties=species:S:1:pos:R:3 gdb_88269=T pbc="F F F"
C        0.38760000       1.53250000      -0.58930000
C        0.04060000       0.14940000      -0.10800000
O        1.10390000      -0.76270000       0.10780000
C        0.34380000      -0.37790000       1.25340000
C        1.04850000       0.46660000       2.26510000
O        2.06900000       1.08310000       2.03720000
C        0.41430000       0.54130000       3.64820000
N        1.05410000       1.43330000       4.45510000
N       -0.61550000      -0.18500000       3.88410000
H        1.24480000       1.93390000      -0.04790000
H        0.63470000       1.49690000      -1.65550000
H       -0.46970000       2.20290000      -0.46680000
H       -0.83650000      -0.30040000      -0.57920000
H       -0.31560000      -1.13360000       1.66670000
H        1.93960000       1.78150000       4.11880000
H        0.88460000       1.43100000       5.44610000
H       -0.96120000      -0.05570000       4.83760000
