20
Properties=species:S:1:pos:R:3 gdb_17189=T pbc="F F F"
C       -0.18130000       1.55390000      -0.00380000
C        0.04150000       0.04890000       0.02430000
C        1.22190000      -0.63020000      -0.75590000
C        2.19420000      -0.10950000       0.34830000
C        0.94000000      -0.63700000       1.11300000
C        0.99380000      -1.84730000       0.16100000
C        0.15170000      -3.06670000       0.02950000
C        1.66280000      -3.17180000       0.25700000
H        0.73350000       2.13500000       0.13430000
H       -0.62290000       1.85550000      -0.96040000
H       -0.88270000       1.84960000       0.78470000
H       -0.91270000      -0.46900000      -0.12150000
H        1.38540000      -0.63850000      -1.83550000
H        3.11410000      -0.68230000       0.48500000
H        2.39100000       0.96260000       0.38190000
H        0.77790000      -0.65310000       2.19270000
H       -0.50060000      -3.34750000       0.85100000
H       -0.22910000      -3.34090000      -0.94970000
H        2.27300000      -3.51490000      -0.57310000
H        2.00140000      -3.52140000       1.22770000
