18
Properties=species:S:1:pos:R:3 gdb_98992=T pbc="F F F"
C        0.03640000       1.35000000       0.80910000
N        0.21870000      -0.06010000       1.08920000
C        0.95250000      -0.86720000       0.28660000
O        1.49450000      -0.51600000      -0.74600000
C        1.02390000      -2.34530000       0.71970000
C        1.04620000      -2.62520000       2.20580000
O        0.34340000      -2.08770000       3.03480000
O        1.94020000      -3.57570000       2.50950000
C        2.01540000      -3.93760000       3.89760000
H        0.50020000       1.55970000      -0.15530000
H       -1.02750000       1.60610000       0.76050000
H        0.50900000       1.97480000       1.57570000
H       -0.12520000      -0.45750000       1.95360000
H        0.13040000      -2.84000000       0.31720000
H        1.88970000      -2.78920000       0.23140000
H        2.29560000      -3.07260000       4.50320000
H        1.05280000      -4.31770000       4.24770000
H        2.77920000      -4.71210000       3.95770000
