18
Properties=species:S:1:pos:R:3 gdb_84909=T pbc="F F F"
C       -0.11150000       1.52020000       0.01860000
C        0.04880000      -0.00620000       0.06740000
N        0.62850000      -0.47520000      -1.18670000
C        1.82900000      -0.86940000      -1.20780000
O        2.73990000      -0.91640000      -0.20620000
C        2.34050000      -0.33140000       1.03610000
C        0.84710000      -0.54200000       1.29620000
C        0.40570000       0.11030000       2.58670000
O       -0.38840000      -0.37280000       3.35300000
H        0.85540000       2.03320000       0.04580000
H       -0.60410000       1.79630000      -0.91680000
H       -0.72180000       1.88340000       0.85140000
H       -0.95630000      -0.43890000       0.12630000
H        2.27390000      -1.25330000      -2.12380000
H        2.95950000      -0.80650000       1.80110000
H        2.58600000       0.73880000       1.01480000
H        0.64090000      -1.61320000       1.38520000
H        0.85700000       1.10920000       2.79040000
