23
Properties=species:S:1:pos:R:3 gdb_122820=T pbc="F F F"
C        0.00050000       1.63080000      -0.02670000
C        0.00840000       0.10000000      -0.01380000
C        0.70430000      -0.51030000      -1.23510000
C        0.71260000      -2.04180000      -1.22280000
C        1.40900000      -2.63920000      -2.44530000
C        1.42240000      -4.15390000      -2.44240000
O        0.94850000      -4.86320000      -1.59060000
O        2.04780000      -4.62820000      -3.54160000
C        2.11700000      -6.05540000      -3.63890000
H        1.02010000       2.03230000      -0.04210000
H       -0.51850000       2.01700000      -0.91120000
H       -0.50260000       2.03570000       0.85690000
H        0.50310000      -0.25730000       0.89900000
H       -1.02320000      -0.27250000       0.03700000
H        0.21020000      -0.15300000      -2.14990000
H        1.73740000      -0.13780000      -1.28740000
H        1.20630000      -2.40630000      -0.31450000
H       -0.31450000      -2.42140000      -1.17350000
H        0.93040000      -2.31060000      -3.37640000
H        2.44850000      -2.29550000      -2.51890000
H        2.64490000      -6.26510000      -4.56930000
H        2.66000000      -6.47580000      -2.78840000
H        1.11470000      -6.49110000      -3.66180000
