19
Properties=species:S:1:pos:R:3 gdb_72923=T pbc="F F F"
C       -0.02230000       1.50180000      -0.03840000
C        0.00770000      -0.01380000      -0.02060000
C       -1.25950000      -0.77160000       0.43880000
O       -0.51580000      -1.51840000       1.43100000
C        0.69890000      -0.79460000       1.13140000
C        1.76400000      -1.55200000       0.29970000
C        0.96290000      -2.14300000      -0.87390000
C        0.85140000      -0.63030000      -1.16680000
O        2.19960000      -0.47140000      -0.59470000
H        0.98550000       1.89840000      -0.19080000
H       -0.66290000       1.87420000      -0.84680000
H       -0.40880000       1.90450000       0.90360000
H       -2.01320000      -0.12900000       0.91030000
H       -1.75270000      -1.42380000      -0.29240000
H        1.09900000      -0.26260000       1.99900000
H        2.57800000      -2.06950000       0.80590000
H        1.61840000      -2.63390000      -1.59290000
H        0.07320000      -2.73680000      -0.66630000
H        0.74570000      -0.21820000      -2.17100000
