17
Properties=species:S:1:pos:R:3 gdb_9726=T pbc="F F F"
C        0.24660000       1.42120000       0.00090000
C       -0.12440000      -0.07510000      -0.01060000
C        0.54180000      -0.81950000      -1.21690000
C        1.71040000      -1.60040000      -0.56430000
O        1.84540000      -1.08540000       0.75490000
C        0.53610000      -0.80640000       1.19620000
C       -1.57800000      -0.23560000      -0.00010000
N       -2.72710000      -0.36220000       0.02330000
H        1.33370000       1.51550000       0.06970000
H       -0.09300000       1.91670000      -0.91240000
H       -0.20470000       1.93140000       0.85620000
H       -0.16140000      -1.48980000      -1.71360000
H        0.89150000      -0.09560000      -1.95580000
H        1.48330000      -2.67640000      -0.53060000
H        2.66630000      -1.46500000      -1.07500000
H        0.59480000      -0.18420000       2.09180000
H       -0.01610000      -1.72890000       1.43390000
