21
Properties=species:S:1:pos:R:3 gdb_70274=T pbc="F F F"
C        0.06640000       1.50390000      -0.05520000
C        0.02460000      -0.00430000       0.01070000
C       -0.82060000      -0.69100000       1.06000000
C        0.68660000      -0.80310000       1.11350000
C        1.31810000      -2.04700000       0.51050000
C        0.62230000      -2.22110000      -0.86920000
C        0.22840000      -0.77940000      -1.28820000
C        1.53520000      -2.87250000      -1.87940000
O        1.31850000      -3.90460000      -2.45870000
H        1.00370000       1.85710000      -0.50160000
H       -0.75750000       1.89920000      -0.66100000
H       -0.01720000       1.94740000       0.94200000
H       -1.29070000      -0.05260000       1.80080000
H       -1.41180000      -1.56220000       0.79590000
H        1.20910000      -0.30400000       1.92300000
H        2.39490000      -1.87880000       0.37210000
H        1.20980000      -2.94450000       1.12790000
H       -0.26280000      -2.85450000      -0.77740000
H       -0.64960000      -0.77580000      -1.94280000
H        1.04970000      -0.31370000      -1.85190000
H        2.47790000      -2.29910000      -2.06060000
