21
Properties=species:S:1:pos:R:3 gdb_121456=T pbc="F F F"
C        0.30520000       1.51790000       0.12330000
C        0.21080000      -0.00840000       0.08190000
C       -0.27830000      -0.53850000      -1.26680000
N       -0.38020000      -1.99260000      -1.24590000
C       -0.40030000      -2.61560000      -2.34290000
N       -0.35350000      -2.31060000      -3.69800000
C        0.01780000      -3.68800000      -4.08830000
C       -0.32240000      -4.11400000      -2.62380000
O        0.68150000      -4.79590000      -1.92150000
H        1.00270000       1.89670000      -0.63280000
H       -0.66920000       1.98270000      -0.06640000
H        0.65440000       1.86800000       1.09930000
H        1.18880000      -0.45440000       0.29950000
H       -0.47000000      -0.37010000       0.86090000
H       -1.26430000      -0.10290000      -1.49140000
H        0.40120000      -0.18650000      -2.06410000
H       -0.00740000      -1.45570000      -4.11000000
H       -0.59500000      -4.10630000      -4.89090000
H        1.08160000      -3.82740000      -4.30390000
H       -1.28660000      -4.63280000      -2.54850000
H        0.82220000      -4.29750000      -1.10660000
