22
Properties=species:S:1:pos:R:3 gdb_102625=T pbc="F F F"
C        0.18950000       1.48310000      -0.16150000
C        0.11990000      -0.03340000      -0.32860000
N       -1.21400000      -0.59690000      -0.04910000
H       -1.41400000      -0.43050000       1.86790000
C       -2.18260000      -0.33780000      -1.12600000
C       -3.63490000      -0.41270000      -0.65780000
C       -1.12000000      -2.01210000       0.31640000
C       -0.84780000      -2.19130000       1.81850000
O       -1.13870000      -1.09610000       2.53710000
O       -0.44890000      -3.21450000       2.30280000
H        1.21040000       1.82940000      -0.34860000
H       -0.46750000       2.01310000      -0.85700000
H       -0.08840000       1.77310000       0.85620000
H        0.45750000      -0.32430000      -1.33880000
H        0.82070000      -0.49370000       0.37540000
H       -1.99130000       0.66850000      -1.50710000
H       -2.01680000      -1.02670000      -1.97240000
H       -3.90330000      -1.40580000      -0.28470000
H       -3.81910000       0.30940000       0.14320000
H       -4.30810000      -0.18470000      -1.48970000
H       -2.07270000      -2.51040000       0.11430000
H       -0.35080000      -2.56060000      -0.24440000
