19
Properties=species:S:1:pos:R:3 gdb_92522=T pbc="F F F"
C       -0.01740000       1.42720000       0.29380000
N       -0.01000000       0.00800000       0.05000000
C       -1.21400000      -0.77290000      -0.14110000
C       -0.64510000      -2.17190000      -0.44670000
C       -0.31110000      -2.60730000      -1.89960000
C        1.16160000      -2.75880000      -1.42260000
N        0.80760000      -2.08850000      -0.13540000
C        1.15490000      -0.72420000      -0.04410000
O        2.28200000      -0.27770000      -0.06240000
H        1.02180000       1.75220000       0.37110000
H       -0.50130000       1.97030000      -0.52870000
H       -0.54530000       1.67500000       1.22430000
H       -1.84120000      -0.77610000       0.76160000
H       -1.82710000      -0.38040000      -0.96590000
H       -1.14970000      -2.95120000       0.13020000
H       -0.81090000      -3.50450000      -2.26960000
H       -0.44270000      -1.79940000      -2.62480000
H        1.47480000      -3.79330000      -1.25920000
H        1.93710000      -2.23200000      -1.98290000
