17
Properties=species:S:1:pos:R:3 gdb_92711=T pbc="F F F"
N        0.07110000       1.33900000       0.37240000
C       -0.02590000       0.00020000       0.10280000
N       -1.11600000      -0.66860000       0.02230000
C       -0.78200000      -2.04850000      -0.35070000
C        0.74880000      -2.23380000      -0.15360000
O        1.38720000      -3.10000000      -1.06750000
C        1.22070000      -0.78040000      -0.16770000
C        2.35940000      -0.27750000      -0.95010000
O        2.43040000      -0.37420000       0.47770000
H        0.92730000       1.60980000       0.83540000
H       -0.76560000       1.76300000       0.74580000
H       -1.37050000      -2.75490000       0.24260000
H       -1.04340000      -2.23260000      -1.40460000
H        0.95880000      -2.65340000       0.83580000
H        1.10340000      -2.85520000      -1.95550000
H        2.96980000      -1.00010000      -1.48780000
H        2.33580000       0.73340000      -1.35230000
