19
Properties=species:S:1:pos:R:3 gdb_55833=T pbc="F F F"
C       -0.26430000       1.50000000      -0.14510000
C       -0.21200000      -0.00620000       0.03760000
O       -0.37900000      -0.52720000       1.11690000
C        0.06590000      -0.83260000      -1.21520000
C        0.12200000      -2.32930000      -0.95440000
C       -1.21710000      -3.05370000      -0.60800000
C       -0.86990000      -4.10120000      -1.67620000
O       -1.30540000      -5.17830000      -1.96080000
C        0.31480000      -3.26300000      -2.19160000
H        0.68850000       1.86920000      -0.54100000
H       -1.03600000       1.77080000      -0.87450000
H       -0.47610000       1.98220000       0.80980000
H       -0.70640000      -0.59340000      -1.96140000
H        1.00750000      -0.47520000      -1.65620000
H        0.86930000      -2.53510000      -0.18520000
H       -1.35000000      -3.41820000       0.41230000
H       -2.10920000      -2.47890000      -0.88420000
H        0.07660000      -2.77990000      -3.14680000
H        1.26770000      -3.78750000      -2.29970000
