16
Properties=species:S:1:pos:R:3 gdb_124164=T pbc="F F F"
C       -0.03460000       1.42550000       0.00000000
C       -0.00370000      -0.02870000      -0.00760000
C        0.05100000      -1.23480000      -0.00790000
C        0.03240000      -2.64960000      -0.01100000
N        1.14490000      -3.40060000      -0.07920000
N        0.69610000      -4.65570000      -0.06680000
C       -0.66310000      -4.75770000       0.01360000
C       -1.13820000      -3.46300000       0.05110000
N       -2.45070000      -3.00430000       0.19590000
H        0.97230000       1.83530000       0.13590000
H       -0.43030000       1.82670000      -0.94020000
H       -0.65980000       1.80890000       0.81440000
H        1.36150000      -5.40770000      -0.11480000
H       -1.16570000      -5.71070000       0.04080000
H       -3.12960000      -3.54150000      -0.32680000
H       -2.52730000      -2.02410000      -0.04670000
