18
Properties=species:S:1:pos:R:3 gdb_13402=T pbc="F F F"
O       -0.08680000       1.42500000       0.15730000
C        0.00630000       0.00960000       0.07190000
C       -1.41020000      -0.54530000      -0.00060000
C       -1.43810000      -2.06950000      -0.14660000
O       -0.78600000      -2.69040000       0.97080000
C       -1.65210000      -3.63240000       1.59740000
C       -2.94510000      -3.54130000       0.83730000
C       -2.82090000      -2.66600000      -0.15240000
H        0.79960000       1.77460000       0.28550000
H        0.57050000      -0.29830000      -0.82480000
H        0.51870000      -0.41680000       0.94530000
H       -1.96010000      -0.25610000       0.90160000
H       -1.92440000      -0.09260000      -0.85750000
H       -0.88920000      -2.34290000      -1.06570000
H       -1.21040000      -4.64120000       1.54950000
H       -1.76770000      -3.38270000       2.66360000
H       -3.82190000      -4.12540000       1.08670000
H       -3.57490000      -2.38790000      -0.87770000
