19
Properties=species:S:1:pos:R:3 gdb_106630=T pbc="F F F"
C       -0.05940000       1.37900000       0.01660000
O        0.10420000      -0.02770000       0.02320000
C        0.67040000      -0.55710000      -1.11920000
C        0.00690000      -0.52970000      -2.54070000
C        0.99450000      -1.69190000      -2.75520000
O        2.30210000      -1.07740000      -2.63850000
C        2.12640000      -0.20700000      -1.49310000
C        0.72340000      -2.11670000      -1.29410000
O        1.68260000      -2.88020000      -0.63300000
H        0.90350000       1.90810000      -0.00100000
H       -0.65890000       1.71300000      -0.84180000
H       -0.58440000       1.64010000       0.93780000
H       -1.03680000      -0.84800000      -2.52330000
H        0.14540000       0.35320000      -3.16650000
H        0.98180000      -2.36660000      -3.60780000
H        2.27810000       0.83560000      -1.79000000
H        2.83470000      -0.46740000      -0.69900000
H       -0.25990000      -2.56200000      -1.13290000
H        2.52050000      -2.71430000      -1.08460000
