12
Properties=species:S:1:pos:R:3 gdb_9164=T pbc="F F F"
C        0.08050000       1.37310000       0.12430000
O        0.20760000      -0.05780000       0.05560000
C        0.45580000      -0.54610000      -1.16620000
O        0.57110000       0.10610000      -2.17260000
C        0.57020000      -1.98990000      -1.13220000
C        0.68840000      -3.19070000      -1.18580000
C        0.79140000      -4.63050000      -1.24950000
O        1.81530000      -5.24190000      -1.06160000
H        1.00380000       1.85390000      -0.20690000
H       -0.74440000       1.71350000      -0.50580000
H       -0.11650000       1.59690000       1.17180000
H       -0.16370000      -5.13850000      -1.48890000
