20
Properties=species:S:1:pos:R:3 gdb_22506=T pbc="F F F"
C        0.06360000       1.38940000      -0.14590000
O        0.00040000      -0.01690000      -0.14430000
C        0.75460000      -0.59980000      -1.18230000
C        0.63650000      -2.12150000      -1.05160000
C        1.26530000      -2.83260000      -2.21720000
C        0.59040000      -2.80660000      -3.57880000
O        1.37340000      -2.15090000      -4.56010000
N        2.38390000      -3.41320000      -2.00320000
O        2.87920000      -4.02340000      -3.18150000
H        1.09400000       1.75280000      -0.00570000
H       -0.32390000       1.81530000      -1.08510000
H       -0.55200000       1.74530000       0.68370000
H        0.38900000      -0.26020000      -2.16630000
H        1.81400000      -0.30270000      -1.11390000
H        1.11000000      -2.44350000      -0.12140000
H       -0.42930000      -2.37560000      -0.99480000
H        0.35730000      -3.84270000      -3.86990000
H       -0.35420000      -2.25980000      -3.51630000
H        2.20110000      -2.64510000      -4.60470000
H        3.70820000      -4.40840000      -2.87970000
