15
Properties=species:S:1:pos:R:3 gdb_14144=T pbc="F F F"
O       -0.11740000       1.35000000      -0.18930000
C       -0.03390000      -0.03910000      -0.05680000
C       -0.38780000      -0.68310000       1.26350000
C       -1.34860000      -0.74650000       0.09910000
C       -2.67800000       0.01370000       0.06170000
O       -3.54600000      -0.89010000      -0.66990000
C       -2.78150000      -1.96880000      -0.95960000
N       -1.56850000      -2.00250000      -0.58640000
H        0.61540000       1.74390000       0.29550000
H        0.71570000      -0.52930000      -0.67570000
H        0.12060000      -1.59910000       1.54230000
H       -0.65220000      -0.02080000       2.08260000
H       -3.11960000       0.18710000       1.04750000
H       -2.61420000       0.96070000      -0.47920000
H       -3.29280000      -2.74820000      -1.51260000
