20
Properties=species:S:1:pos:R:3 gdb_10396=T pbc="F F F"
C        0.09610000       1.51510000       0.06130000
C       -0.01850000      -0.00060000      -0.11970000
C        0.73300000      -0.53120000      -1.33940000
C        2.27990000      -0.55770000      -1.16240000
O        2.25990000      -1.98560000      -0.97010000
C        0.87200000      -2.07770000      -1.34720000
O        0.15790000       0.10270000      -2.45800000
C        0.74460000      -0.10200000      -3.72560000
H        1.13820000       1.82490000       0.19770000
H       -0.29830000       2.03850000      -0.81250000
H       -0.46260000       1.84410000       0.94240000
H        0.36340000      -0.52080000       0.76620000
H       -1.07250000      -0.28470000      -0.22720000
H        2.86150000      -0.27170000      -2.04720000
H        2.67950000      -0.02740000      -0.29040000
H        0.27310000      -2.62200000      -0.60760000
H        0.74030000      -2.55160000      -2.32850000
H        0.07490000       0.36430000      -4.45240000
H        1.73210000       0.37090000      -3.81150000
H        0.84660000      -1.16510000      -3.98060000
