17
Properties=species:S:1:pos:R:3 gdb_124405=T pbc="F F F"
C       -0.08070000       1.50480000       0.07720000
C        0.09080000      -0.02420000       0.00420000
C        0.74210000      -0.43930000      -1.23610000
C        1.26220000      -0.74070000      -2.27590000
N        0.81270000      -0.52760000       1.17540000
C        2.13100000      -0.81630000       1.31370000
C        2.32600000      -1.14850000       2.63860000
C        1.05050000      -1.02100000       3.22390000
N        0.13480000      -0.64070000       2.33600000
H        0.89200000       2.00070000       0.02810000
H       -0.69480000       1.85310000      -0.75700000
H       -0.56910000       1.76350000       1.01900000
H       -0.90020000      -0.48790000       0.05880000
H        1.71600000      -1.02280000      -3.19410000
H        2.80180000      -0.77740000       0.47160000
H        3.25020000      -1.44840000       3.10480000
H        0.75800000      -1.19640000       4.24890000
