21
Properties=species:S:1:pos:R:3 gdb_98685=T pbc="F F F"
C        0.04020000       1.68240000       0.35960000
C       -0.11070000       0.17780000       0.56330000
C       -1.24970000      -0.43200000      -0.24200000
O       -2.01760000       0.23750000      -0.89490000
C       -1.33870000      -1.93500000      -0.17010000
O       -2.56950000      -2.55350000      -0.53260000
C       -1.45030000      -2.80170000      -1.38160000
C       -1.54220000      -2.21040000      -2.77000000
C       -0.89140000      -4.20740000      -1.30120000
H        0.85080000       2.07760000       0.97770000
H        0.25730000       1.91570000      -0.68620000
H       -0.88430000       2.20240000       0.62160000
H        0.81380000      -0.35960000       0.30740000
H       -0.29120000      -0.06250000       1.62110000
H       -0.84840000      -2.37410000       0.70100000
H       -1.97790000      -1.21230000      -2.74020000
H       -0.55180000      -2.16250000      -3.23560000
H       -2.17240000      -2.85060000      -3.39690000
H       -1.50090000      -4.88770000      -1.90590000
H        0.13210000      -4.24280000      -1.68890000
H       -0.89120000      -4.57240000      -0.27140000
