15
Properties=species:S:1:pos:R:3 gdb_2184=T pbc="F F F"
C       -0.20140000       1.48920000       0.09200000
C       -0.00760000      -0.01900000      -0.00170000
C        1.21730000      -0.45120000      -0.87820000
C        2.00090000      -0.52050000       0.43780000
O        3.12000000      -0.23990000       0.76860000
C        0.71870000      -0.63500000       1.26060000
O        0.67670000      -0.00440000       2.50360000
H        0.74590000       2.00410000       0.28960000
H       -0.60760000       1.88900000      -0.84210000
H       -0.88690000       1.74100000       0.90560000
H       -0.94490000      -0.51970000      -0.25100000
H        1.08900000      -1.43390000      -1.34070000
H        1.59230000       0.25380000      -1.62290000
H        0.41690000      -1.68610000       1.36650000
H        1.52420000       0.44200000       2.62430000
