18
Properties=species:S:1:pos:R:3 gdb_55704=T pbc="F F F"
C        0.13340000       1.44690000      -0.14490000
C       -0.19230000      -0.01140000       0.05180000
N       -0.82130000      -0.56880000       0.99840000
O        0.31010000      -0.72660000      -0.99180000
C        0.15680000      -2.13570000      -0.96700000
C       -1.20410000      -2.68730000      -1.31290000
C       -0.09900000      -2.72750000      -2.33470000
C        1.01210000      -2.82940000      -0.04370000
C        1.74760000      -3.42630000       0.69640000
H        1.21820000       1.58860000      -0.16770000
H       -0.25840000       1.79650000      -1.10480000
H       -0.29020000       2.05230000       0.65790000
H       -1.11800000       0.12260000       1.68350000
H       -1.50590000      -3.60530000      -0.82400000
H       -1.99120000      -1.95480000      -1.44100000
H       -0.13620000      -2.01730000      -3.15270000
H        0.37450000      -3.67470000      -2.56180000
H        2.38340000      -3.94680000       1.36850000
