19
Properties=species:S:1:pos:R:3 gdb_48834=T pbc="F F F"
O       -0.21500000       0.07670000       0.30460000
C       -0.02040000       1.20530000      -0.07310000
C        1.28830000       1.90510000      -0.04560000
C        1.18530000       3.41650000       0.20640000
C        1.54070000       2.92690000      -1.15710000
C        2.97510000       3.04460000      -1.67450000
C        3.75830000       1.72040000      -1.60060000
C        3.58120000       1.03540000      -0.26700000
C        2.45780000       1.13180000       0.44300000
H       -0.85390000       1.83020000      -0.47640000
H        0.19560000       3.82870000       0.37690000
H        1.97140000       3.84600000       0.81760000
H        0.75960000       2.99750000      -1.90880000
H        2.96070000       3.41480000      -2.70450000
H        3.51030000       3.79550000      -1.08300000
H        3.43030000       1.04280000      -2.40240000
H        4.81950000       1.91350000      -1.79100000
H        4.40460000       0.43190000       0.10490000
H        2.34040000       0.60610000       1.38540000
