21
Properties=species:S:1:pos:R:3 gdb_92507=T pbc="F F F"
C       -0.04770000       1.48830000       0.02410000
C       -0.02970000      -0.00430000       0.10740000
C       -1.03580000      -0.87410000       0.15060000
C       -2.45130000      -1.14720000      -0.30660000
C       -1.86970000      -2.49030000      -0.89550000
C       -0.62150000      -2.31370000       0.04210000
C        0.85600000      -2.22800000      -0.37620000
C        1.28880000      -0.80220000       0.09840000
O        2.30260000      -0.21840000      -0.70760000
H        0.62310000       1.85200000      -0.76130000
H       -1.05540000       1.86740000      -0.16750000
H        0.30680000       1.93950000       0.96060000
H       -3.14870000      -1.34420000       0.51500000
H       -2.91490000      -0.43580000      -0.99520000
H       -2.47560000      -3.39070000      -0.76700000
H       -1.60440000      -2.37820000      -1.95020000
H       -0.75860000      -2.88760000       0.96680000
H        1.49650000      -3.01860000       0.02420000
H        0.94380000      -2.25520000      -1.47060000
H        1.74320000      -0.84100000       1.09790000
H        1.97270000      -0.19640000      -1.61330000
