18
Properties=species:S:1:pos:R:3 gdb_35990=T pbc="F F F"
N        0.05180000      -1.38920000       0.44600000
C        0.01160000      -0.23870000       0.35760000
C       -0.05790000       1.22530000       0.24590000
C        1.24960000       1.84980000       0.06170000
C        2.32880000       2.36300000      -0.08440000
C        3.61470000       2.99850000      -0.28230000
C        4.19920000       3.10930000      -1.72930000
C        4.72390000       4.52300000      -1.36570000
C        3.71940000       4.55680000      -0.18410000
H       -0.72680000       1.47010000      -0.58950000
H       -0.54700000       1.61140000       1.14990000
H        4.35820000       2.53970000       0.37860000
H        4.92080000       2.34760000      -2.03090000
H        3.39580000       3.14970000      -2.46880000
H        5.75990000       4.49380000      -1.01620000
H        4.63570000       5.30330000      -2.12380000
H        2.77380000       5.02630000      -0.46610000
H        4.05110000       4.97170000       0.76980000
