18
Properties=species:S:1:pos:R:3 gdb_19587=T pbc="F F F"
C       -0.01830000       1.58980000       0.01840000
C       -0.05820000       0.06770000      -0.00330000
C        1.12210000      -0.61190000      -0.74630000
O        1.95580000      -0.31210000       0.43300000
C        0.70760000      -0.62800000       1.15270000
C        0.58930000      -2.14490000       0.89810000
C       -0.40890000      -2.67020000      -0.10320000
C        0.91380000      -2.13220000      -0.58880000
H        0.98810000       1.94920000       0.24100000
H       -0.32850000       1.99870000      -0.94960000
H       -0.70490000       1.98400000       0.77570000
H       -1.06990000      -0.27480000      -0.22700000
H        1.53580000      -0.23520000      -1.68230000
H        0.69240000      -0.26810000       2.18190000
H        1.07380000      -2.82270000       1.59020000
H       -0.50490000      -3.75210000      -0.13330000
H       -1.34270000      -2.15930000      -0.30260000
H        1.64500000      -2.80040000      -1.02710000
