15
Properties=species:S:1:pos:R:3 gdb_65914=T pbc="F F F"
O       -0.01240000       1.49790000      -0.25060000
C       -0.07550000       0.10230000      -0.11880000
C        0.45450000      -0.56040000       1.18420000
O       -0.78200000      -1.26110000       1.37190000
C       -1.41310000      -0.55770000       0.27820000
C        0.57410000      -0.45420000      -1.37820000
O        0.06090000      -1.24650000      -2.12870000
C        2.02060000      -0.01500000      -1.65410000
O        2.75980000       0.39040000      -0.79750000
H       -0.04840000       1.89740000       0.62500000
H        1.31550000      -1.23170000       1.10610000
H        0.65410000       0.18060000       1.97410000
H       -2.16160000       0.16800000       0.62060000
H       -1.85080000      -1.23770000      -0.45760000
H        2.33530000      -0.19370000      -2.70350000
