12
Properties=species:S:1:pos:R:3 gdb_62370=T pbc="F F F"
O       -0.05330000       1.39850000      -0.03930000
C        0.03960000       0.01430000      -0.02060000
C        1.02510000      -0.50070000      -0.97910000
N        1.82870000      -0.88280000      -1.71650000
C       -0.04060000      -0.71220000       1.37900000
O       -1.44560000      -0.25940000       1.46690000
C       -1.35390000      -0.68180000       0.05030000
C       -0.65650000      -1.93880000       0.65010000
O       -0.73340000      -3.11720000       0.69890000
H        0.81730000       1.77720000       0.12800000
H        0.59610000      -0.60040000       2.25330000
H       -2.21690000      -0.53120000      -0.59280000
