23
Properties=species:S:1:pos:R:3 gdb_96599=T pbc="F F F"
O       -0.27000000       1.53200000      -0.23170000
C       -0.00200000       0.13640000      -0.06990000
C       -1.39850000      -0.50760000      -0.02860000
C       -1.52040000      -2.01790000      -0.26950000
C       -0.85680000      -2.95740000       0.74530000
C        0.67590000      -2.87190000       0.79280000
O        1.24590000      -2.77350000      -0.50560000
C        1.86020000      -1.53860000      -0.81870000
C        0.92190000      -0.38100000      -1.19250000
H        0.56390000       2.00580000      -0.15260000
H        0.50720000      -0.01550000       0.89510000
H       -1.86670000      -0.23890000       0.92610000
H       -1.97830000       0.00710000      -0.80470000
H       -2.59030000      -2.25570000      -0.29860000
H       -1.13110000      -2.26640000      -1.26190000
H       -1.24550000      -2.77790000       1.75680000
H       -1.14010000      -3.98370000       0.48350000
H        1.00070000      -2.02760000       1.41370000
H        1.07670000      -3.78000000       1.26230000
H        2.50700000      -1.22000000       0.01640000
H        2.51500000      -1.74720000      -1.67180000
H        0.33580000      -0.63800000      -2.08230000
H        1.57590000       0.45040000      -1.49060000
