19
Properties=species:S:1:pos:R:3 gdb_121041=T pbc="F F F"
C       -0.00710000       1.57000000      -0.05770000
C       -0.03810000       0.04210000       0.02240000
C        0.75080000      -0.50400000       1.21780000
C        0.72140000      -2.01960000       1.32560000
C        1.49140000      -2.60500000       2.52190000
O        0.63230000      -3.63640000       3.01030000
C       -0.61490000      -3.47640000       2.49390000
O       -1.56500000      -4.11710000       2.80980000
O       -0.61950000      -2.48370000       1.56920000
H        1.01820000       1.94420000      -0.15640000
H       -0.57760000       1.93180000      -0.91820000
H       -0.43930000       2.02240000       0.84150000
H       -1.07390000      -0.30730000       0.09320000
H        0.36890000      -0.38540000      -0.90340000
H        1.80240000      -0.19260000       1.14660000
H        0.36000000      -0.08230000       2.15290000
H        1.05740000      -2.47470000       0.38480000
H        2.45180000      -3.04410000       2.24580000
H        1.64700000      -1.86230000       3.31330000
