19
Properties=species:S:1:pos:R:3 gdb_108953=T pbc="F F F"
C        0.01510000       1.39560000      -0.11250000
N       -0.07500000      -0.03920000       0.09420000
C        0.64280000      -0.61740000       1.09410000
N        1.24170000      -0.03060000       2.06430000
C        1.73970000      -1.08730000       2.90860000
C        0.73430000      -2.04360000       3.54440000
C       -0.73390000      -1.73530000       3.72260000
C        1.36290000      -2.38760000       2.21840000
O        0.66250000      -1.98620000       1.04680000
H        0.99210000       1.71190000      -0.50170000
H       -0.76540000       1.70350000      -0.81190000
H       -0.14300000       1.89800000       0.84350000
H       -0.19890000      -0.62170000      -0.71920000
H        2.68940000      -0.90560000       3.39880000
H        1.17320000      -2.62190000       4.35530000
H       -1.12030000      -1.10290000       2.92120000
H       -1.32710000      -2.65590000       3.73820000
H       -0.90240000      -1.20830000       4.66740000
H        1.97950000      -3.26190000       2.05160000
