10
Properties=species:S:1:pos:R:3 gdb_89=T pbc="F F F"
N       -0.04450000       1.25620000       0.31680000
C       -0.03910000       0.04910000      -0.01670000
C       -1.08750000      -1.04160000      -0.11490000
C        0.09870000      -1.90750000      -0.58230000
O        0.99650000      -0.76310000      -0.44030000
H        0.88940000       1.66480000       0.24920000
H       -1.54320000      -1.32240000       0.83570000
H       -1.86910000      -0.85710000      -0.85330000
H        0.39740000      -2.72230000       0.08160000
H        0.06950000      -2.25420000      -1.61800000
