12
Properties=species:S:1:pos:R:3 gdb_15289=T pbc="F F F"
N        0.00570000      -1.04910000      -0.58180000
C       -0.00410000       0.03930000      -0.19590000
C        0.00290000       1.41320000       0.30510000
C        1.38750000       2.03200000       0.22350000
O        1.77190000       2.59800000      -1.02000000
C        1.57920000       3.49110000       0.07920000
C        0.44530000       4.38730000       0.00040000
N       -0.45840000       5.10660000      -0.03870000
H       -0.70930000       2.01560000      -0.26670000
H       -0.33310000       1.41000000       1.34880000
H        2.17630000       1.47940000       0.73320000
H        2.48550000       3.94490000       0.47470000
