19
Properties=species:S:1:pos:R:3 gdb_75289=T pbc="F F F"
C       -0.00070000       1.50810000       0.04060000
C       -0.00200000       0.01180000       0.00190000
C       -0.00540000      -0.76790000      -1.08410000
C        0.01750000      -2.25280000      -0.79330000
C        0.04870000      -2.31240000       0.74980000
C        1.41230000      -2.48690000       1.45200000
O        2.31980000      -1.52630000       0.90350000
C        1.41610000      -1.09240000       1.92260000
C        0.03560000      -0.82380000       1.25270000
H        0.90110000       1.89080000       0.53550000
H       -0.04020000       1.93770000      -0.96410000
H       -0.85630000       1.89410000       0.60990000
H       -0.01200000      -0.38760000      -2.10170000
H       -0.86050000      -2.76250000      -1.21020000
H        0.89830000      -2.73340000      -1.23790000
H       -0.72780000      -2.94090000       1.18920000
H        1.84650000      -3.38200000       1.88400000
H        1.84980000      -0.64160000       2.80830000
H       -0.73500000      -0.58000000       1.99140000
