19
Properties=species:S:1:pos:R:3 gdb_125876=T pbc="F F F"
C        0.04300000       1.53590000      -0.28320000
C       -0.00190000       0.05270000       0.00190000
C        1.21900000      -0.81420000      -0.14160000
C        0.64770000      -0.56510000       1.23680000
C        1.37180000       0.22630000       2.25480000
N        0.93350000       0.21630000       3.51660000
N        1.79220000       1.01120000       4.18470000
C        2.76460000       1.52460000       3.39690000
C        2.53060000       1.03650000       2.13020000
H        0.98440000       1.98440000       0.04520000
H       -0.06430000       1.72960000      -1.35650000
H       -0.76720000       2.06170000       0.23390000
H       -0.94110000      -0.41920000      -0.27580000
H        1.12160000      -1.80750000      -0.56630000
H        2.15450000      -0.32130000      -0.38750000
H        0.08680000      -1.38100000       1.68030000
H        1.66220000       1.14440000       5.17270000
H        3.53140000       2.17440000       3.78830000
H        3.12140000       1.22560000       1.24930000
