23
Properties=species:S:1:pos:R:3 gdb_99860=T pbc="F F F"
C       -1.49990000      -0.33700000       0.09010000
C        0.01750000      -0.14550000       0.05300000
C        0.73420000      -0.61830000      -1.24660000
C        0.64550000      -2.15340000      -1.38800000
C        0.13270000       0.03070000      -2.41730000
C       -0.32120000       0.59520000      -3.37930000
C        2.23210000      -0.15340000      -1.16110000
C        3.12470000      -0.66780000      -2.29200000
O        2.31390000       1.26130000      -1.06560000
H       -1.98450000       0.18470000      -0.74040000
H       -1.78920000      -1.39150000       0.03880000
H       -1.90660000       0.06600000       1.02270000
H        0.26050000       0.91080000       0.19340000
H        0.47870000      -0.68700000       0.88910000
H       -0.39390000      -2.48720000      -1.35350000
H        1.07080000      -2.49690000      -2.33290000
H        1.18610000      -2.63650000      -0.56650000
H       -0.74470000       1.07330000      -4.22820000
H        2.61800000      -0.52150000      -0.20270000
H        2.70950000      -0.39990000      -3.26980000
H        4.11140000      -0.20690000      -2.19890000
H        3.25020000      -1.75340000      -2.25870000
H        1.90910000       1.61990000      -1.86620000
