18
Properties=species:S:1:pos:R:3 gdb_98209=T pbc="F F F"
C        0.11640000       1.41380000       0.04690000
N        0.28220000      -0.02580000      -0.03040000
C        0.54250000      -0.67400000      -1.18280000
O        0.63830000      -0.14630000      -2.28070000
C        0.66210000      -2.22210000      -1.08870000
O        1.21220000      -2.69620000      -2.28970000
C        1.42700000      -2.65300000       0.08260000
C        2.03630000      -3.00870000       1.05920000
C        2.78930000      -3.45910000       2.22080000
H        0.95120000       1.88480000       0.57790000
H        0.08540000       1.79900000      -0.97260000
H       -0.81630000       1.67080000       0.55870000
H        0.35240000      -0.56290000       0.82040000
H       -0.37460000      -2.59030000      -0.97530000
H        1.18560000      -1.92100000      -2.87920000
H        3.48550000      -4.25800000       1.94360000
H        3.37660000      -2.64560000       2.66030000
H        2.12610000      -3.85300000       2.99860000
