21
Properties=species:S:1:pos:R:3 gdb_114838=T pbc="F F F"
C       -0.04550000       1.39830000      -0.08110000
O       -0.02100000       0.02300000       0.21730000
C       -1.27290000      -0.60520000       0.09070000
C       -1.72430000      -0.89320000      -1.38540000
C       -1.86040000      -2.43360000      -1.39950000
C       -0.45130000      -3.02700000      -1.23710000
O       -0.09830000      -2.72590000       0.12530000
C       -1.21320000      -2.02930000       0.68480000
C       -2.42070000      -2.70230000       0.01710000
H        0.96460000       1.78310000       0.08050000
H       -0.33300000       1.59610000      -1.12520000
H       -0.74290000       1.94540000       0.57400000
H       -2.03780000      -0.01520000       0.62220000
H       -2.67580000      -0.40810000      -1.62190000
H       -0.97500000      -0.53510000      -2.09730000
H       -2.42000000      -2.84190000      -2.24220000
H       -0.43370000      -4.11520000      -1.38490000
H        0.27970000      -2.57190000      -1.91670000
H       -1.12910000      -2.06740000       1.77100000
H       -3.37350000      -2.20140000       0.20950000
H       -2.50150000      -3.76110000       0.27410000
