16
Properties=species:S:1:pos:R:3 gdb_29367=T pbc="F F F"
N        0.11680000       1.44290000       0.04730000
C        0.04740000       0.02640000      -0.01570000
C       -1.05510000      -0.81700000      -0.01250000
N       -0.61760000      -2.09850000      -0.01340000
C        0.76920000      -2.12790000      -0.03580000
C        1.45840000      -3.38160000      -0.04880000
O        0.90020000      -4.47020000      -0.03880000
C        1.20440000      -0.79600000      -0.02630000
N        2.49510000      -0.29000000      -0.07380000
H        0.30670000       1.85460000      -0.86210000
H       -0.74520000       1.84790000       0.39220000
H       -2.10720000      -0.57640000       0.00490000
H       -1.16180000      -2.94430000      -0.00260000
H        2.56800000      -3.30900000      -0.07130000
H        3.20910000      -0.89180000       0.31040000
H        2.54250000       0.64280000       0.31940000
