19
Properties=species:S:1:pos:R:3 gdb_75634=T pbc="F F F"
C       -0.13500000       1.59910000       0.05780000
C        0.06260000       0.08880000       0.04450000
C        1.12090000      -0.56560000      -0.88920000
O        1.25730000      -0.57170000      -2.08160000
C        1.77670000      -1.31670000       0.23420000
C        2.36300000      -2.69750000       0.18050000
C        2.19970000      -0.28170000       1.29090000
C        0.76130000      -0.65540000       1.20080000
O        0.08830000      -1.31510000       2.20980000
H        0.78500000       2.12870000       0.32440000
H       -0.44160000       1.94640000      -0.93370000
H       -0.91220000       1.89320000       0.77110000
H       -0.88730000      -0.41900000      -0.16860000
H        3.36080000      -2.68840000      -0.27020000
H        2.44920000      -3.11830000       1.18720000
H        1.73420000      -3.36700000      -0.41420000
H        2.73870000      -0.73950000       2.11580000
H        2.56500000       0.70170000       1.00910000
H        0.05680000      -0.74460000       2.98510000
