14
Properties=species:S:1:pos:R:3 gdb_27499=T pbc="F F F"
N        0.11040000       1.34530000      -0.17860000
C       -0.06760000       0.00730000       0.01540000
C       -1.21080000      -0.69420000      -0.15620000
C       -1.20990000      -2.12780000       0.02360000
O       -2.15730000      -2.87680000      -0.10210000
N        0.05000000      -2.64200000       0.38290000
C        1.21100000      -1.94100000       0.57590000
N        2.30070000      -2.48350000       0.91130000
O        1.10910000      -0.57150000       0.37580000
H        0.91020000       1.75900000       0.27450000
H       -0.71820000       1.91650000      -0.20620000
H       -2.13370000      -0.20880000      -0.43690000
H        0.10750000      -3.64030000       0.52400000
H        3.04180000      -1.79320000       0.99850000
