21
Properties=species:S:1:pos:R:3 gdb_99022=T pbc="F F F"
C       -0.07420000       1.45100000       0.01030000
C       -0.02890000      -0.08090000      -0.05050000
C        0.11980000      -0.67510000       1.35110000
O       -1.27210000      -0.58430000      -0.55300000
C        1.13680000      -0.51930000      -0.99040000
C        1.25180000      -2.02210000      -1.14280000
O        1.89310000      -2.70900000      -0.37240000
C        0.51680000      -2.69050000      -2.29190000
O        0.70990000      -4.07230000      -2.29150000
H        0.84600000       1.86090000       0.43710000
H       -0.19650000       1.88120000      -0.99140000
H       -0.91670000       1.77410000       0.62840000
H       -0.70510000      -0.33350000       1.98190000
H        0.10150000      -1.76580000       1.31840000
H        1.06430000      -0.36550000       1.80620000
H       -1.52440000      -0.05490000      -1.31750000
H        0.97830000      -0.05720000      -1.97250000
H        2.08280000      -0.14830000      -0.58530000
H       -0.54710000      -2.42170000      -2.18970000
H        0.86840000      -2.23680000      -3.23480000
H        1.27580000      -4.24270000      -1.52090000
