23
Properties=species:S:1:pos:R:3 gdb_102052=T pbc="F F F"
C        0.03520000       1.61220000       0.24850000
C        0.02160000       0.09850000       0.00910000
C       -1.40100000      -0.48570000      -0.05810000
C       -2.08630000      -0.04280000      -1.33700000
O       -3.22270000       0.34990000      -1.41910000
C       -1.43550000      -2.05030000       0.09830000
C       -2.88520000      -2.54430000       0.18680000
C       -0.68520000      -2.77380000      -1.02360000
O       -0.73850000      -2.40620000       1.29520000
H        1.06000000       1.99350000       0.28640000
H       -0.49160000       2.15510000      -0.54420000
H       -0.45130000       1.86700000       1.19650000
H        0.55380000      -0.12560000      -0.92430000
H        0.56250000      -0.41810000       0.80650000
H       -2.00250000      -0.08130000       0.76700000
H       -1.44200000      -0.10630000      -2.24630000
H       -3.44900000      -2.32650000      -0.72370000
H       -2.89510000      -3.62440000       0.35760000
H       -3.41140000      -2.05850000       1.01690000
H        0.36170000      -2.46460000      -1.06150000
H       -0.71010000      -3.85090000      -0.83830000
H       -1.14320000      -2.58250000      -1.99830000
H       -1.26450000      -2.10610000       2.04490000
