16
Properties=species:S:1:pos:R:3 gdb_26494=T pbc="F F F"
O       -0.21970000       1.30030000      -0.40500000
C       -0.03550000      -0.04330000      -0.07770000
C       -0.33030000      -0.49600000       1.34690000
C       -1.28560000      -0.81490000       0.22640000
C        1.05590000      -0.72630000      -0.80500000
N        1.29240000      -1.99650000      -0.91490000
C        2.47100000      -2.06750000      -1.64760000
C        2.88700000      -0.81670000      -1.94490000
O        1.98380000       0.06240000      -1.40480000
H        0.60430000       1.76730000      -0.22610000
H        0.27180000      -1.29910000       1.75560000
H       -0.61000000       0.29020000       2.03910000
H       -2.20560000      -0.24500000       0.17040000
H       -1.33400000      -1.83490000      -0.13480000
H        2.92250000      -3.01170000      -1.90770000
H        3.71140000      -0.38760000      -2.48690000
