15
Properties=species:S:1:pos:R:3 gdb_125360=T pbc="F F F"
C       -0.01590000       1.50950000       0.04100000
C       -0.00550000       0.01380000       0.03030000
C       -0.03240000      -0.80460000      -1.07100000
N       -0.01130000      -2.16080000      -0.69530000
C        0.02970000      -2.17920000       0.66210000
C        0.03480000      -0.88240000       1.15460000
N        0.07560000      -0.94030000       2.51890000
N        0.09610000      -2.18400000       2.88410000
N        0.06730000      -2.97710000       1.74560000
H        0.87910000       1.91160000       0.52880000
H       -0.05560000       1.91080000      -0.97550000
H       -0.87900000       1.89860000       0.59240000
H       -0.06580000      -0.54620000      -2.11810000
H       -0.02410000      -2.94020000      -1.32690000
H        0.07830000      -3.97650000       1.85000000
