18
Properties=species:S:1:pos:R:3 gdb_84139=T pbc="F F F"
C        0.02850000       1.51580000      -0.16330000
C        0.06380000       0.00250000       0.03090000
N        0.63040000      -0.67300000      -1.14370000
C        1.58300000      -1.40820000      -0.74260000
C        2.45420000      -2.27550000      -1.58470000
O        1.87030000      -1.44220000       0.59180000
C        0.94750000      -0.52120000       1.23140000
C        1.69090000       0.48270000       1.97880000
C        2.28730000       1.30990000       2.61420000
H        1.03580000       1.91510000      -0.30680000
H       -0.56650000       1.75070000      -1.04940000
H       -0.41770000       2.01400000       0.70210000
H       -0.96290000      -0.35560000       0.17210000
H        3.50220000      -1.98130000      -1.47150000
H        2.37300000      -3.31890000      -1.26440000
H        2.15800000      -2.18830000      -2.62930000
H        0.34200000      -1.11020000       1.92790000
H        2.81840000       2.04050000       3.17350000
