19
Properties=species:S:1:pos:R:3 gdb_32098=T pbc="F F F"
C       -0.07000000       1.45500000       0.08550000
C        0.02780000      -0.07800000      -0.00360000
C        0.72940000      -0.51270000      -1.26430000
N       -0.01460000      -0.58350000      -2.37880000
C        0.62810000      -0.93990000      -3.48990000
C        1.98710000      -1.22450000      -3.51380000
C        2.67610000      -1.11950000      -2.30670000
C        4.14930000      -1.39910000      -2.19180000
N        2.04030000      -0.76180000      -1.18270000
H        0.92630000       1.90800000       0.09750000
H       -0.61820000       1.85610000      -0.77210000
H       -0.59230000       1.75680000       0.99810000
H        0.58090000      -0.46700000       0.85510000
H       -0.97810000      -0.50810000       0.00100000
H        0.02990000      -1.00180000      -4.39720000
H        2.48750000      -1.51610000      -4.42970000
H        4.58870000      -1.66720000      -3.15530000
H        4.66900000      -0.52090000      -1.79620000
H        4.32300000      -2.21580000      -1.48390000
