16
Properties=species:S:1:pos:R:3 gdb_14069=T pbc="F F F"
C       -0.07150000       1.50950000      -0.08260000
C        0.04820000       0.00340000      -0.02700000
C        1.37730000      -0.67440000      -0.20300000
C        0.71860000      -0.65950000       1.15170000
C        1.17320000      -0.11250000       2.49750000
O        0.63320000      -1.31510000       3.14170000
C        0.21840000      -1.83710000       1.93210000
O       -0.33450000      -2.87110000       1.73130000
H        0.82120000       1.99610000       0.32410000
H       -0.19210000       1.85000000      -1.11620000
H       -0.93630000       1.86270000       0.48880000
H       -0.81020000      -0.54330000      -0.40900000
H        1.41720000      -1.62770000      -0.71880000
H        2.25580000      -0.04840000      -0.32670000
H        2.25100000      -0.03930000       2.66050000
H        0.66430000       0.78250000       2.86370000
