16
Properties=species:S:1:pos:R:3 gdb_56711=T pbc="F F F"
N        0.12600000       1.38370000       0.25670000
C       -0.02570000      -0.03800000      -0.02050000
C       -1.45670000      -0.39090000       0.00420000
N       -2.57170000      -0.69100000       0.00820000
C        0.62260000      -0.54930000      -1.32540000
C        2.05740000      -1.05560000      -1.25710000
C        0.93620000      -2.02870000      -1.45990000
C        0.22920000       0.17970000      -2.50400000
N       -0.08790000       0.79740000      -3.42930000
H        1.11230000       1.62570000       0.26270000
H       -0.31590000       1.93380000      -0.47480000
H        0.44880000      -0.59110000       0.80030000
H        2.70480000      -0.83160000      -2.09600000
H        2.54080000      -1.01510000      -0.28650000
H        0.63660000      -2.65850000      -0.62920000
H        0.80980000      -2.47880000      -2.43650000
