17
Properties=species:S:1:pos:R:3 gdb_78373=T pbc="F F F"
O        0.15610000       1.12010000       0.17460000
C       -0.04550000      -0.24560000      -0.02200000
C       -1.48860000      -0.60590000      -0.09330000
C       -0.60530000      -0.66760000      -1.38060000
C       -0.67890000      -2.16640000      -1.31300000
C       -0.02020000      -3.31720000      -1.24520000
C       -0.65530000      -4.10900000      -0.09820000
O       -1.41810000      -3.14860000       0.66320000
C       -1.73890000      -2.12290000      -0.25780000
H        1.02250000       1.34720000      -0.17850000
H        0.66610000      -0.90380000       0.47730000
H       -2.24040000       0.12870000       0.16640000
H       -0.58390000      -0.00010000      -2.23120000
H        0.86120000      -3.65140000      -1.77710000
H       -1.31150000      -4.92380000      -0.44770000
H        0.09950000      -4.55160000       0.56260000
H       -2.75760000      -2.25490000      -0.65880000
