21
Properties=species:S:1:pos:R:3 gdb_112019=T pbc="F F F"
C       -0.07550000       1.56370000       0.08250000
C       -0.04920000       0.03760000      -0.03850000
C        0.72730000      -0.49880000      -1.25930000
C        2.19900000      -0.11760000      -1.24420000
C        3.12060000      -1.08100000      -1.22110000
C        2.59820000      -2.50270000      -1.22720000
C        1.57830000      -2.65510000      -2.38240000
C        0.64020000      -2.03740000      -1.32340000
O        1.49050000      -2.59270000      -0.27550000
H        0.92480000       1.97820000       0.24070000
H       -0.49000000       2.02840000      -0.81980000
H       -0.69490000       1.87550000       0.92910000
H        0.38610000      -0.40750000       0.86280000
H       -1.08070000      -0.33410000      -0.10330000
H        0.26040000      -0.08610000      -2.16770000
H        2.46670000       0.93450000      -1.24510000
H        4.18730000      -0.88330000      -1.22220000
H        3.35500000      -3.27040000      -1.05600000
H        1.76560000      -2.11510000      -3.31210000
H        1.32460000      -3.69880000      -2.57650000
H       -0.39010000      -2.39920000      -1.25190000
