17
Properties=species:S:1:pos:R:3 gdb_4114=T pbc="F F F"
C        0.72550000       1.39880000      -0.04530000
C       -0.08310000       0.11230000       0.05910000
C        0.37330000      -1.01150000      -0.93250000
C        1.12530000      -1.62700000       0.22940000
N        2.18830000      -2.29680000       0.38980000
O        2.70880000      -2.74000000      -0.83830000
C        0.36570000      -0.81710000       1.25780000
O        1.04120000      -0.28700000       2.36240000
H        1.80150000       1.19240000      -0.09040000
H        0.45920000       1.95530000      -0.94930000
H        0.54790000       2.04110000       0.82190000
H       -1.15380000       0.32970000       0.04710000
H       -0.44480000      -1.63890000      -1.29820000
H        0.98970000      -0.70850000      -1.78220000
H        3.50180000      -3.21350000      -0.56440000
H       -0.50070000      -1.36830000       1.64370000
H        1.97750000      -0.24560000       2.13970000
