15
Properties=species:S:1:pos:R:3 gdb_77147=T pbc="F F F"
N        0.08210000       1.18560000       0.36580000
C        0.05750000      -0.06740000      -0.16300000
O        0.98390000      -0.58620000      -0.75570000
C       -1.28730000      -0.79490000      -0.05960000
N       -1.12180000      -2.24500000       0.10630000
C       -1.55780000      -2.27280000       1.40890000
O       -1.49190000      -3.07270000       2.30310000
C       -2.06990000      -0.81150000       1.30480000
O       -1.69000000       0.06770000       2.33300000
H        0.97500000       1.65620000       0.35830000
H       -0.55470000       1.39250000       1.12320000
H       -1.89390000      -0.51670000      -0.92860000
H       -0.42300000      -2.81800000      -0.34830000
H       -3.15090000      -0.74020000       1.15070000
H       -1.21030000      -0.44070000       2.99800000
