19
Properties=species:S:1:pos:R:3 gdb_119629=T pbc="F F F"
O        0.13140000       1.42450000      -0.34740000
C        0.04890000       0.01620000      -0.19810000
C       -1.38250000      -0.45790000       0.08330000
C       -1.49230000      -1.95220000       0.18830000
C       -1.60850000      -2.88100000      -1.01380000
C       -2.71350000      -2.79630000       0.02490000
O       -2.71550000      -3.73470000       1.07190000
C       -1.40640000      -3.72920000       1.61130000
O       -0.82110000      -2.47410000       1.32140000
H       -0.06470000       1.82250000       0.50670000
H        0.39850000      -0.40620000      -1.14600000
H        0.72220000      -0.35000000       0.58980000
H       -1.73860000      -0.01180000       1.02150000
H       -2.03700000      -0.09940000      -0.71830000
H       -1.81040000      -2.41230000      -1.97160000
H       -0.99480000      -3.77300000      -1.07120000
H       -3.70560000      -2.43130000      -0.20880000
H       -1.45980000      -3.86500000       2.69630000
H       -0.80820000      -4.54010000       1.16430000
