19
Properties=species:S:1:pos:R:3 gdb_73793=T pbc="F F F"
C        0.02920000       1.51780000      -0.15580000
C        0.01340000       0.01180000      -0.07740000
C       -1.14630000      -0.68400000      -0.00610000
N       -2.38990000      -0.08190000      -0.03520000
C       -1.14040000      -2.18690000       0.06510000
C        0.14510000      -2.70590000      -0.56190000
O        1.28790000      -2.06560000      -0.00480000
C        1.29690000      -0.68940000       0.00430000
N        2.40250000      -0.06780000       0.13500000
H        1.05500000       1.86950000      -0.26020000
H       -0.55810000       1.88370000      -1.00730000
H       -0.38670000       1.98000000       0.75120000
H       -2.42780000       0.89080000       0.23010000
H       -3.15820000      -0.62360000       0.32920000
H       -1.22000000      -2.51940000       1.10910000
H       -2.00350000      -2.59740000      -0.47330000
H        0.28360000      -3.77410000      -0.37820000
H        0.12100000      -2.54020000      -1.64790000
H        3.16890000      -0.74100000       0.17100000
