15
Properties=species:S:1:pos:R:3 gdb_133017=T pbc="F F F"
C       -0.03610000       1.44120000       0.00760000
N        0.02570000      -0.00890000       0.00250000
C       -1.05780000      -0.66690000       0.00900000
O       -2.29230000      -0.00180000       0.02100000
C       -3.46570000      -0.68010000       0.02780000
C       -3.50660000      -2.02070000       0.02370000
F       -4.67410000      -2.67150000       0.03070000
C       -2.28900000      -2.77850000       0.01180000
C       -1.11420000      -2.11630000       0.00480000
H        0.97990000       1.84240000      -0.00050000
H       -0.57140000       1.83450000      -0.86790000
H       -0.55490000       1.82880000       0.89550000
H       -4.33440000      -0.03570000       0.03670000
H       -2.34360000      -3.86110000       0.00870000
H       -0.15830000      -2.62320000      -0.00440000
