17
Properties=species:S:1:pos:R:3 gdb_54868=T pbc="F F F"
N        0.57030000       0.17920000       0.86200000
C       -0.12020000       0.45330000      -0.27620000
O        0.16960000       1.34750000      -1.04660000
C       -1.35540000      -0.43300000      -0.49090000
C       -1.69710000      -0.69820000      -1.94060000
C       -1.92530000      -1.99690000      -2.12820000
C       -1.66780000      -2.75420000      -0.86820000
C       -0.26040000      -2.67430000      -0.38520000
N       -1.28000000      -1.76240000       0.16660000
H        1.35430000       0.76170000       1.10540000
H        0.26940000      -0.55240000       1.48330000
H       -2.17960000       0.11810000      -0.00960000
H       -1.72000000       0.08970000      -2.68040000
H       -2.21420000      -2.47380000      -3.05630000
H       -2.31670000      -3.57080000      -0.56430000
H        0.11480000      -3.39530000       0.33620000
H        0.47710000      -2.28320000      -1.08110000
