18
Properties=species:S:1:pos:R:3 gdb_22274=T pbc="F F F"
C       -0.55090000       1.64280000      -0.23190000
C        0.04880000       0.29580000       0.12630000
O        1.21340000       0.17050000       0.43050000
C       -0.88910000      -0.89500000       0.04740000
C       -0.97160000      -1.56180000      -1.38540000
C       -0.68830000      -2.88120000      -0.69940000
C       -0.36610000      -2.23930000       0.63110000
N       -0.81900000      -4.05880000      -1.14320000
O       -0.51550000      -5.00640000      -0.14760000
H        0.23270000       2.39860000      -0.29530000
H       -1.09830000       1.58680000      -1.17920000
H       -1.27720000       1.93580000       0.53570000
H       -1.88510000      -0.62240000       0.40480000
H       -1.92280000      -1.47540000      -1.91500000
H       -0.16380000      -1.23970000      -2.05110000
H        0.70670000      -2.18890000       0.84160000
H       -0.88440000      -2.64780000       1.50120000
H       -0.66190000      -5.83870000      -0.60950000
