13
Properties=species:S:1:pos:R:3 gdb_42235=T pbc="F F F"
N        0.02170000       1.05230000       0.61530000
C       -0.02620000      -0.05000000       0.03390000
C       -1.13760000      -1.00320000      -0.36000000
C        0.03980000      -1.83540000      -0.94570000
O        0.98400000      -0.83980000      -0.50520000
C        0.27110000      -3.18050000      -0.28870000
O        1.05160000      -3.39470000       0.59760000
C       -0.60120000      -4.24760000      -0.82820000
N       -1.29890000      -5.05940000      -1.26540000
H        0.97670000       1.40270000       0.70050000
H       -1.67470000      -1.45350000       0.47620000
H       -1.84730000      -0.61550000      -1.09050000
H        0.03520000      -1.94330000      -2.03540000
