16
Properties=species:S:1:pos:R:3 gdb_127399=T pbc="F F F"
C       -0.04620000       1.41540000       0.06650000
N       -0.07670000      -0.02830000       0.15470000
C       -1.43060000      -0.62490000       0.13290000
C       -1.16620000      -1.95100000       0.76610000
N       -1.73200000      -3.10570000       0.92580000
O       -0.82080000      -3.82760000       1.67930000
N        0.31120000      -3.08520000       1.97380000
C        0.09220000      -1.93830000       1.41210000
C        0.73940000      -0.60280000       1.24710000
H        0.98920000       1.75940000      -0.02160000
H       -0.58340000       1.74340000      -0.82890000
H       -0.50060000       1.91770000       0.94170000
H       -2.16500000      -0.05340000       0.73060000
H       -1.81070000      -0.68230000      -0.89220000
H        1.79470000      -0.64560000       0.95880000
H        0.67250000      -0.02460000       2.18740000
