22
Properties=species:S:1:pos:R:3 gdb_6966=T pbc="F F F"
C       -0.45150000       1.44100000      -0.00100000
C       -0.12310000      -0.02100000      -0.02350000
C        0.17560000      -0.74710000      -1.10240000
C        0.49560000      -2.18350000      -0.77320000
C        0.00840000      -2.30800000       0.68950000
C       -0.03350000      -0.85800000       1.25690000
C        1.27130000      -0.52300000       2.01250000
C       -1.23300000      -0.65310000       2.19580000
H        0.24430000       2.00220000       0.63550000
H       -0.40890000       1.87260000      -1.00480000
H       -1.45560000       1.62340000       0.40140000
H        0.22410000      -0.35240000      -2.11280000
H       -0.00060000      -2.89830000      -1.43990000
H        1.57350000      -2.37850000      -0.86900000
H       -1.00540000      -2.72290000       0.69600000
H        0.63160000      -2.97220000       1.29600000
H        2.15050000      -0.71880000       1.39050000
H        1.30200000       0.53010000       2.31220000
H        1.35680000      -1.12760000       2.92260000
H       -1.18130000      -1.34670000       3.04280000
H       -1.25870000       0.36240000       2.60590000
H       -2.17930000      -0.83110000       1.67410000
