18
Properties=species:S:1:pos:R:3 gdb_124806=T pbc="F F F"
C       -0.01980000       1.44570000      -0.40600000
C        0.01620000       0.05750000       0.23850000
O        0.43490000       0.19660000       1.58140000
C       -1.31300000      -0.64730000       0.14040000
N       -1.87980000      -1.08810000       1.23590000
O       -3.05960000      -1.71040000       0.83920000
C       -3.17180000      -1.62400000      -0.50040000
C       -4.38410000      -2.23210000      -1.11110000
C       -2.09600000      -0.96350000      -1.00690000
H        0.95790000       1.92020000      -0.29020000
H       -0.25170000       1.38250000      -1.47350000
H       -0.77020000       2.07080000       0.08550000
H        0.74780000      -0.55840000      -0.31410000
H       -0.10570000      -0.39300000       2.12170000
H       -5.29390000      -1.75980000      -0.72660000
H       -4.36040000      -2.11080000      -2.19540000
H       -4.44450000      -3.30040000      -0.87990000
H       -1.89140000      -0.73670000      -2.04000000
