16
Properties=species:S:1:pos:R:3 gdb_29150=T pbc="F F F"
N        0.00330000       1.35940000      -0.27660000
C       -0.01740000      -0.02000000      -0.10150000
C       -1.19290000      -0.74950000      -0.03270000
C       -1.24420000      -2.19040000       0.09920000
O       -2.27810000      -2.86620000       0.17040000
C        0.07430000      -2.79350000       0.14440000
N        1.17910000      -2.04170000       0.06090000
C        1.22420000      -0.69040000      -0.04270000
N        2.45760000      -0.00630000      -0.07490000
H        3.12380000      -0.30000000       0.62880000
H        2.90700000       0.02270000      -0.98430000
H        0.87090000       1.78500000       0.02080000
H       -0.81490000       1.83960000       0.06670000
H       -2.14710000      -0.23220000      -0.07510000
H        0.20550000      -3.86180000       0.24810000
H        2.07610000      -2.51180000       0.08580000
