14
Properties=species:S:1:pos:R:3 gdb_133499=T pbc="F F F"
C       -0.06690000       1.43310000       0.10710000
C        0.03560000      -0.06780000       0.08340000
O        0.15030000      -0.74050000       1.08310000
C        0.02570000      -0.81830000      -1.26990000
O        0.18930000      -2.18200000      -1.06040000
C       -1.28290000      -0.57210000      -2.03600000
F       -1.37230000       0.71550000      -2.42420000
F       -1.35000000      -1.32930000      -3.12740000
F       -2.35020000      -0.84110000      -1.27290000
H        0.60290000       1.88450000      -0.63080000
H       -1.08340000       1.73540000      -0.16400000
H        0.16630000       1.79720000       1.10800000
H        0.83180000      -0.41290000      -1.90120000
H        0.18420000      -2.28920000      -0.09280000
