19
Properties=species:S:1:pos:R:3 gdb_113065=T pbc="F F F"
C        0.30030000       1.78250000      -0.63820000
O        0.66830000       0.55060000      -0.03850000
C        0.65180000      -0.52260000      -0.92740000
C        1.01840000      -1.89760000      -0.30840000
C       -0.14240000      -2.58170000      -1.07830000
O       -0.89100000      -3.49210000      -0.33480000
C       -1.95800000      -4.07280000      -1.06730000
C       -0.71980000      -1.15510000      -1.29170000
O       -1.82810000      -0.71830000      -1.41890000
H        0.98650000       2.04650000      -1.45810000
H       -0.72360000       1.75030000      -1.02820000
H        0.36810000       2.54560000       0.14000000
H        1.23880000      -0.30820000      -1.83720000
H        2.02480000      -2.27250000      -0.48930000
H        0.80090000      -1.89210000       0.76180000
H        0.19460000      -3.01560000      -2.03560000
H       -2.45590000      -4.77630000      -0.39660000
H       -2.67730000      -3.31550000      -1.39960000
H       -1.58500000      -4.62100000      -1.94670000
