21
Properties=species:S:1:pos:R:3 gdb_93843=T pbc="F F F"
C        0.11840000       1.52110000      -0.09320000
C        0.08790000       0.00540000      -0.00560000
O        0.73520000      -0.49880000      -1.18440000
C        0.69640000      -1.91390000      -1.26190000
C        1.51220000      -2.49480000      -0.10840000
O        2.85920000      -2.00180000      -0.19500000
C        0.86680000      -2.07070000       1.21840000
C        0.74170000      -0.53890000       1.28800000
O        1.99780000       0.06860000       1.55160000
H        1.14890000       1.87620000      -0.03120000
H       -0.32420000       1.85490000      -1.03500000
H       -0.44580000       1.96020000       0.73510000
H       -0.95790000      -0.35100000      -0.01510000
H       -0.33970000      -2.28670000      -1.22950000
H        1.13430000      -2.18580000      -2.22770000
H        1.55790000      -3.58730000      -0.18360000
H        2.82090000      -1.22660000      -0.77200000
H       -0.12490000      -2.53330000       1.29470000
H        1.46200000      -2.42590000       2.06550000
H        0.08130000      -0.26020000       2.12000000
H        2.67210000      -0.51430000       1.17910000
