25
Properties=species:S:1:pos:R:3 gdb_64283=T pbc="F F F"
C       -0.03530000       1.56200000      -0.12550000
C       -0.01950000       0.02700000      -0.02810000
C       -1.46480000      -0.47380000       0.12360000
C        0.65400000      -0.59070000      -1.29320000
C        2.13390000      -0.78210000      -0.92460000
C        2.07830000      -1.29480000       0.52500000
C        3.02890000      -0.62540000       1.55130000
C        1.90300000       0.38970000       1.89960000
C        0.87590000      -0.51140000       1.13710000
H        0.94720000       1.97200000      -0.37950000
H       -0.73420000       1.88570000      -0.90490000
H       -0.35330000       2.02070000       0.81720000
H       -2.06770000      -0.21920000      -0.75580000
H       -1.49420000      -1.56250000       0.24330000
H       -1.95050000      -0.02790000       0.99920000
H        0.20400000      -1.56920000      -1.50400000
H        0.50700000       0.02650000      -2.18600000
H        2.66180000      -1.45860000      -1.60340000
H        2.65750000       0.18160000      -0.96480000
H        2.02590000      -2.38720000       0.55260000
H        3.26630000      -1.28480000       2.39060000
H        3.96640000      -0.21800000       1.16170000
H        1.70450000       0.54840000       2.96240000
H        2.05550000       1.36770000       1.43960000
H        0.28220000      -1.09890000       1.84240000
