19
Properties=species:S:1:pos:R:3 gdb_36354=T pbc="F F F"
N        0.05470000      -1.01790000      -1.03430000
C        0.05860000      -0.03750000      -0.42400000
C        0.04160000       1.21460000       0.34080000
N        1.33830000       1.87860000       0.27930000
C        1.56740000       2.75780000      -0.87520000
C        1.34420000       3.31950000       0.48080000
C        0.19680000       4.25750000       0.89640000
C        1.28230000       5.22440000       1.45850000
C        2.33330000       4.07810000       1.36840000
H       -0.79150000       1.83040000      -0.03780000
H       -0.18460000       0.97680000       1.38690000
H        2.56450000       2.70770000      -1.30380000
H        0.76290000       2.86570000      -1.60220000
H       -0.45990000       4.63920000       0.11120000
H       -0.42220000       3.83010000       1.69250000
H        1.50020000       6.04040000       0.76600000
H        1.09560000       5.64510000       2.44770000
H        2.48740000       3.57100000       2.32530000
H        3.30770000       4.31800000       0.93690000
