17
Properties=species:S:1:pos:R:3 gdb_81949=T pbc="F F F"
C        0.26290000       1.62250000       0.02510000
C        0.11510000       0.10100000       0.02450000
C        0.69870000      -0.61360000      -1.18580000
O        2.13250000      -0.59220000      -1.17990000
C        1.47300000      -1.80110000      -0.78070000
C        1.36630000      -1.96880000       0.71890000
O        2.53610000      -2.35750000       1.37880000
C        0.88670000      -0.57630000       1.16190000
O        1.18090000      -0.10100000       2.22870000
H        1.30200000       1.89840000      -0.17320000
H       -0.37070000       2.07880000      -0.74060000
H       -0.01720000       2.02860000       1.00000000
H       -0.94540000      -0.17530000       0.12860000
H        0.22880000      -0.53030000      -2.16210000
H        1.62480000      -2.65780000      -1.43030000
H        0.54320000      -2.68350000       0.91800000
H        2.61110000      -1.77320000       2.14800000
