23
Properties=species:S:1:pos:R:3 gdb_97942=T pbc="F F F"
C       -0.02180000       1.34670000       0.56610000
C       -0.05870000       0.07240000      -0.29740000
C       -1.39200000      -0.51320000      -0.39750000
C       -2.50570000      -0.96790000      -0.47030000
C       -3.83710000      -1.56230000      -0.54840000
C       -3.87530000      -3.01660000      -0.06740000
C       -3.65180000      -3.32110000       1.43960000
C       -4.75900000      -4.40580000       1.34240000
C       -5.25410000      -3.72690000       0.03660000
H        0.99450000       1.74980000       0.61160000
H       -0.67970000       2.11520000       0.15130000
H       -0.35460000       1.13400000       1.58580000
H        0.31660000       0.30270000      -1.30320000
H        0.63620000      -0.66920000       0.11780000
H       -4.54190000      -0.96960000       0.05180000
H       -4.20620000      -1.51260000      -1.58240000
H       -3.18700000      -3.61390000      -0.67460000
H       -2.65280000      -3.62930000       1.75530000
H       -3.96720000      -2.47760000       2.06290000
H       -4.33950000      -5.39710000       1.14830000
H       -5.46590000      -4.48670000       2.17130000
H       -6.05570000      -3.00750000       0.23690000
H       -5.56350000      -4.36740000      -0.79320000
