21
Properties=species:S:1:pos:R:3 gdb_41970=T pbc="F F F"
C       -0.05260000       1.51310000      -0.19190000
C        1.40530000       1.97790000       0.04840000
C        2.06040000       0.89300000       0.94410000
C        1.87110000       1.19730000       2.43360000
O        0.49500000       1.30840000       2.76070000
C       -0.19680000       0.07670000       2.63890000
C        0.04790000      -0.64890000       1.32980000
C       -0.00590000      -0.01060000      -0.04140000
C        1.32740000      -0.40510000       0.56380000
H       -0.73640000       1.97580000       0.52440000
H       -0.40090000       1.78740000      -1.19230000
H        1.93470000       2.00890000      -0.91030000
H        1.46840000       2.97870000       0.48760000
H        3.13330000       0.80620000       0.74350000
H        2.35070000       0.41700000       3.04920000
H        2.31910000       2.16090000       2.69760000
H        0.09690000      -0.59470000       3.46530000
H       -1.25790000       0.31650000       2.77080000
H       -0.29380000      -1.68110000       1.36180000
H       -0.43980000      -0.61410000      -0.83150000
H        1.90130000      -1.24650000       0.19240000
