15
Properties=species:S:1:pos:R:3 gdb_130633=T pbc="F F F"
O       -0.06290000      -0.05040000       0.00570000
C       -0.00020000       1.15610000       0.01010000
C       -1.23590000       2.10450000       0.03160000
C       -0.71210000       3.57250000       0.03070000
C        0.76870000       3.35450000       0.00890000
C        1.17130000       2.03480000      -0.00250000
C        2.58810000       2.08510000      -0.02210000
N        3.01680000       3.33930000      -0.02260000
N        1.88130000       4.10370000      -0.00340000
H       -1.86210000       1.88710000      -0.83810000
H       -1.83750000       1.87940000       0.91660000
H       -1.06060000       4.13620000      -0.84150000
H       -1.03590000       4.12850000       0.91720000
H        3.30310000       1.27650000      -0.03570000
H        1.97950000       5.10530000      -0.00040000
