14
Properties=species:S:1:pos:R:3 gdb_75978=T pbc="F F F"
N       -0.22490000       1.39250000       0.36140000
C       -0.02650000      -0.03130000       0.03950000
C        0.77120000      -0.65300000       1.18740000
O        1.95270000      -0.83470000       1.15580000
O        0.03790000      -0.99770000       2.27600000
C       -1.33020000      -0.62310000       2.27310000
O       -1.99820000      -1.01200000       1.08360000
C       -1.41120000      -0.66830000      -0.09060000
O       -1.95990000      -0.86210000      -1.13530000
H        0.68050000       1.84870000       0.42720000
H       -0.73010000       1.83880000      -0.39880000
H        0.51940000      -0.22260000      -0.89030000
H       -1.80100000      -1.17660000       3.08370000
H       -1.41610000       0.45790000       2.40680000
