17
Properties=species:S:1:pos:R:3 gdb_58011=T pbc="F F F"
C        0.09090000       1.42050000      -0.50620000
C       -0.08500000       0.08400000       0.22700000
O        0.15020000       0.23330000       1.60410000
C       -1.47870000      -0.48950000       0.01460000
O       -2.25460000      -0.70190000       0.91740000
O       -1.75020000      -0.73680000      -1.27770000
C       -3.03790000      -1.31090000      -1.53300000
C       -4.16910000      -0.31600000      -1.30210000
O       -5.32540000      -0.63160000      -1.34330000
H        1.09100000       1.80750000      -0.29810000
H       -0.02550000       1.29590000      -1.58550000
H       -0.63960000       2.15140000      -0.14650000
H        0.62470000      -0.64460000      -0.19570000
H       -0.66370000      -0.03960000       2.05180000
H       -3.02330000      -1.60190000      -2.58660000
H       -3.20420000      -2.19550000      -0.91320000
H       -3.83630000       0.73060000      -1.12480000
