19
Properties=species:S:1:pos:R:3 gdb_75262=T pbc="F F F"
C        0.04930000       1.50140000       0.01840000
C        0.03500000       0.00890000       0.00040000
C        0.01960000      -0.81350000      -1.05740000
C       -0.00210000      -2.29380000      -0.68250000
C        0.33530000      -2.18130000       0.77730000
C        1.18230000      -2.72990000       1.63740000
C        1.40270000      -1.76200000       2.78190000
O        0.83150000      -0.52270000       2.34390000
C       -0.06360000      -0.81400000       1.27380000
H        0.89380000       1.86720000       0.61370000
H        0.12440000       1.92070000      -0.98870000
H       -0.85850000       1.89890000       0.49070000
H        0.00220000      -0.48480000      -2.09190000
H       -0.99420000      -2.73380000      -0.86270000
H        0.71720000      -2.89730000      -1.24680000
H        1.72800000      -3.65940000       1.53470000
H        0.92870000      -2.09080000       3.72270000
H        2.46930000      -1.60550000       2.99120000
H       -1.10110000      -0.76850000       1.65920000
