19
Properties=species:S:1:pos:R:3 gdb_13669=T pbc="F F F"
C       -0.27510000       1.38160000       0.00470000
N        0.03440000      -0.03770000       0.08550000
C        1.40040000      -0.44520000      -0.21970000
C        0.87510000      -0.55430000       1.17140000
C        1.43320000       0.29530000       2.29430000
C        0.42040000       0.48190000       3.44690000
C        0.96750000       1.24210000       4.56350000
C        1.44660000       1.87230000       5.46810000
H        0.55090000       2.05440000       0.28460000
H       -0.55630000       1.61580000      -1.02710000
H       -1.13450000       1.60670000       0.64520000
H        1.51380000      -1.32490000      -0.84840000
H        2.13440000       0.34000000      -0.40430000
H        0.54830000      -1.54060000       1.50420000
H        2.33070000      -0.19340000       2.69070000
H        1.75450000       1.27530000       1.93130000
H       -0.47930000       0.98190000       3.06750000
H        0.09040000      -0.50370000       3.80070000
H        1.85650000       2.42670000       6.27530000
