19
Properties=species:S:1:pos:R:3 gdb_112442=T pbc="F F F"
C       -0.65090000       1.24250000      -0.65440000
O        0.27760000       0.39870000       0.00460000
C        0.89570000      -0.55700000      -0.83970000
C        2.18190000      -1.08530000      -0.20160000
C        2.32900000      -2.51280000      -0.74010000
O        3.31060000      -3.20090000      -0.65080000
C        1.01720000      -2.90390000      -1.43400000
C        0.01770000      -1.82790000      -1.01790000
O       -0.52690000      -2.19200000       0.23850000
H       -0.16510000       1.81590000      -1.45670000
H       -1.49220000       0.68290000      -1.08610000
H       -1.03750000       1.93730000       0.09430000
H        1.10500000      -0.10960000      -1.82320000
H        3.07260000      -0.48600000      -0.39750000
H        2.04920000      -1.14380000       0.88460000
H        1.19060000      -2.89350000      -2.51770000
H        0.69600000      -3.91010000      -1.15760000
H       -0.77930000      -1.68100000      -1.76060000
H       -0.70590000      -1.36260000       0.70240000
