18
Properties=species:S:1:pos:R:3 gdb_36091=T pbc="F F F"
N        0.01300000      -1.16390000      -0.14730000
C        0.02270000      -0.02320000       0.03380000
C        0.02650000       1.42570000       0.23770000
C        1.39410000       2.04010000       0.01920000
C        2.23520000       1.91910000      -1.27720000
C        3.04310000       3.04430000      -0.55450000
C        1.66450000       3.56660000      -0.03690000
C        3.52190000       2.27450000       0.68170000
O        2.29900000       1.58910000       1.04200000
H       -0.69570000       1.87870000      -0.44920000
H       -0.30650000       1.64310000       1.25870000
H        2.72280000       0.95980000      -1.46190000
H        1.71530000       2.27600000      -2.16770000
H        3.75830000       3.68240000      -1.07030000
H        1.09210000       4.08370000      -0.80890000
H        1.63440000       4.11120000       0.91000000
H        4.31100000       1.54580000       0.46600000
H        3.84420000       2.92080000       1.50580000
