19
Properties=species:S:1:pos:R:3 gdb_68151=T pbc="F F F"
O       -0.10390000       1.37460000       0.05500000
C       -0.02880000      -0.01300000       0.02070000
C        0.24750000      -0.88060000       1.29530000
C       -0.46870000      -1.96620000       0.41850000
C       -1.34380000      -0.81280000      -0.13770000
C        0.57730000      -2.17330000      -0.71070000
C        0.89620000      -0.67820000      -1.02180000
C       -1.04380000      -3.17700000       1.06840000
O       -2.22160000      -3.38540000       1.22620000
H        0.79090000       1.73170000       0.05750000
H        1.28300000      -1.06510000       1.59650000
H       -0.35900000      -0.56310000       2.14530000
H       -2.11270000      -0.49990000       0.56960000
H       -1.76350000      -0.92220000      -1.14080000
H        1.45100000      -2.73510000      -0.36750000
H        0.15030000      -2.69990000      -1.56830000
H        0.62830000      -0.38810000      -2.04120000
H        1.94950000      -0.42510000      -0.85950000
H       -0.28160000      -3.90830000       1.42990000
