14
Properties=species:S:1:pos:R:3 gdb_130269=T pbc="F F F"
N        0.16200000       1.32450000       0.28410000
C       -0.01130000      -0.02020000       0.10440000
N       -1.17550000      -0.57690000      -0.14740000
O       -0.85700000      -1.95480000      -0.16730000
C        0.45300000      -2.04660000       0.05410000
C        1.06950000      -3.40000000       0.11080000
C        1.77480000      -3.66290000       1.44570000
O        1.80940000      -4.74290000       1.96640000
N        1.04230000      -0.90190000       0.23170000
H        1.09480000       1.65430000       0.09110000
H       -0.57380000       1.90760000      -0.08450000
H        0.33040000      -4.18060000      -0.07360000
H        1.84420000      -3.46680000      -0.66540000
H        2.27370000      -2.77290000       1.88200000
