17
Properties=species:S:1:pos:R:3 gdb_50828=T pbc="F F F"
N       -0.11460000       1.20070000      -0.14800000
C       -0.00150000      -0.05060000      -0.11630000
O       -1.15000000      -0.79540000       0.01170000
C       -1.03970000      -2.16240000       0.02350000
O       -0.00050000      -2.75910000      -0.07370000
C       -2.40770000      -2.78880000       0.17560000
C       -3.21100000      -2.83710000      -1.16170000
C       -2.80560000      -4.33110000      -1.21820000
N       -2.39940000      -4.25790000       0.21080000
H        0.80590000       1.62820000      -0.24120000
H        0.89720000      -0.66470000      -0.17510000
H       -2.91060000      -2.30280000       1.01950000
H       -4.27750000      -2.67780000      -1.00110000
H       -2.86740000      -2.18820000      -1.96740000
H       -3.60210000      -5.05430000      -1.41730000
H       -1.97670000      -4.51730000      -1.91230000
H       -1.48010000      -4.64240000       0.40740000
