15
Properties=species:S:1:pos:R:3 gdb_124902=T pbc="F F F"
C       -0.05260000       1.51510000       0.00240000
C       -0.03870000       0.00670000      -0.06700000
C        0.77600000      -0.71510000      -1.05470000
O        1.20170000      -0.62070000       0.30610000
C       -1.24170000      -0.67310000       0.49150000
N       -1.76300000      -1.74880000      -0.03900000
O       -2.82680000      -2.05430000       0.81540000
C       -2.82630000      -1.11060000       1.75750000
N       -1.89120000      -0.22680000       1.62710000
H        0.89260000       1.90970000      -0.37650000
H       -0.87350000       1.92450000      -0.59540000
H       -0.18860000       1.84620000       1.03500000
H        0.47420000      -1.70640000      -1.38340000
H        1.35930000      -0.13520000      -1.76860000
H       -3.59000000      -1.17390000       2.51870000
