18
Properties=species:S:1:pos:R:3 gdb_15790=T pbc="F F F"
C        0.34170000       1.76450000      -0.16150000
C       -0.01370000       0.28560000       0.00050000
N       -1.46250000       0.14670000       0.18510000
C       -2.01640000      -0.86440000       0.89660000
O       -1.39590000      -1.76650000       1.42810000
C        0.49420000      -0.54890000      -1.16250000
C        1.77800000      -1.28380000      -1.02820000
N        0.50320000      -2.01230000      -1.07020000
H        1.42350000       1.88370000      -0.26000000
H       -0.12080000       2.18310000      -1.06360000
H        0.00420000       2.34730000       0.70020000
H        0.43750000      -0.10560000       0.91880000
H       -2.07490000       0.82330000      -0.24310000
H       -3.11830000      -0.77860000       0.96010000
H        0.20860000      -0.17140000      -2.14490000
H        2.42080000      -1.42270000      -1.89310000
H        2.30830000      -1.20750000      -0.08110000
H        0.21400000      -2.28960000      -0.13320000
