20
Properties=species:S:1:pos:R:3 gdb_103258=T pbc="F F F"
C        0.23480000       1.31040000       0.35100000
C       -0.15940000      -0.08170000      -0.16030000
C        0.67660000      -0.56290000      -1.33870000
C        0.46960000       0.21290000      -2.63080000
C        2.06430000      -1.12390000      -1.17040000
N        2.24220000      -1.89940000       0.05900000
C        1.16540000      -2.75490000      -0.25010000
O        0.66060000      -3.65070000       0.36570000
C        0.94030000      -2.06450000      -1.58660000
H        1.28610000       1.33480000       0.65860000
H        0.09540000       2.08370000      -0.41040000
H       -0.37330000       1.58920000       1.21660000
H       -0.09420000      -0.79750000       0.66420000
H       -1.21330000      -0.07830000      -0.46580000
H        0.70960000       1.27240000      -2.49910000
H        1.10360000      -0.17320000      -3.43490000
H       -0.57170000       0.14350000      -2.96320000
H        2.92580000      -0.81830000      -1.75120000
H        2.37960000      -1.49320000       0.97770000
H        0.74470000      -2.53200000      -2.54150000
