19
Properties=species:S:1:pos:R:3 gdb_101135=T pbc="F F F"
O        0.13250000       1.41880000      -0.12390000
C        0.10740000       0.01070000      -0.05520000
C       -1.33040000      -0.50650000       0.06960000
O       -2.11160000       0.02370000      -1.00420000
C       -1.40380000      -2.00810000       0.15870000
C       -1.63150000      -2.95450000      -1.00920000
C       -2.56190000      -2.97660000       0.16610000
O       -2.01870000      -3.75790000       1.23170000
C       -0.90480000      -2.83370000       1.34800000
H       -0.61290000       1.66380000      -0.68740000
H        0.57530000      -0.45170000      -0.94410000
H        0.70020000      -0.28820000       0.81670000
H       -1.77270000      -0.06390000       0.97080000
H       -1.75240000      -0.33410000      -1.82540000
H       -2.04730000      -2.49610000      -1.90160000
H       -0.96730000      -3.79580000      -1.18870000
H       -3.63610000      -2.84040000       0.12230000
H        0.06690000      -3.33290000       1.25630000
H       -0.95410000      -2.29160000       2.30010000
