18
Properties=species:S:1:pos:R:3 gdb_109196=T pbc="F F F"
O       -0.00180000       1.39620000       0.08190000
C       -0.02330000      -0.01630000       0.01630000
C       -1.43690000      -0.49690000      -0.03150000
C       -2.54130000       0.24860000      -0.01340000
C       -3.79990000      -0.58170000      -0.01650000
C       -3.26840000      -1.99250000      -0.41820000
C       -1.75450000      -1.97660000      -0.04870000
C       -4.00950000      -3.09980000       0.17610000
N       -4.59430000      -3.97510000       0.65410000
H        0.91550000       1.68230000       0.10620000
H        0.51510000      -0.38820000      -0.87420000
H        0.48160000      -0.47060000       0.88800000
H       -2.54790000       1.32920000       0.04290000
H       -4.26960000      -0.60140000       0.97560000
H       -4.56240000      -0.22670000      -0.71690000
H       -3.34970000      -2.08640000      -1.50630000
H       -1.15800000      -2.54830000      -0.76790000
H       -1.57910000      -2.43030000       0.93570000
