15
Properties=species:S:1:pos:R:3 gdb_11708=T pbc="F F F"
C       -0.01950000       1.58970000       0.09450000
C        0.03350000       0.07190000       0.00820000
C        1.07250000      -0.59210000      -0.97420000
C        1.69070000      -1.30740000       0.23760000
O        2.10190000      -0.29710000       1.16880000
C        0.72540000      -0.67300000       1.16550000
C        2.33430000      -2.58300000       0.28330000
N        2.83990000      -3.62310000       0.27770000
H        0.97020000       1.99390000       0.32380000
H       -0.35570000       2.02190000      -0.85330000
H       -0.71390000       1.91630000       0.87580000
H       -0.96100000      -0.34950000      -0.16680000
H        0.60900000      -1.27480000      -1.68800000
H        1.76030000       0.07950000      -1.49200000
H        0.31350000      -1.04530000       2.09660000
