21
Properties=species:S:1:pos:R:3 gdb_99635=T pbc="F F F"
C        0.18510000       1.51680000      -0.11900000
C        0.19220000      -0.00170000       0.05830000
C        0.54570000      -0.45440000       1.49680000
C       -0.43550000       0.00440000       2.47900000
C       -1.26240000       0.35350000       3.27920000
C        0.65800000      -1.97290000       1.55420000
O        1.80470000      -2.55260000       0.92990000
C        1.64760000      -2.71550000       2.34920000
C        2.68850000      -2.09730000       3.24640000
H        1.16790000       1.94610000       0.10590000
H       -0.06780000       1.78680000      -1.14860000
H       -0.54590000       1.98790000       0.54490000
H       -0.78770000      -0.41540000      -0.20810000
H        0.92650000      -0.45980000      -0.61300000
H        1.52340000      -0.02610000       1.74760000
H       -1.98240000       0.67210000       3.99170000
H       -0.28070000      -2.48120000       1.32250000
H        1.36520000      -3.73180000       2.63260000
H        2.95470000      -1.08630000       2.93270000
H        2.32300000      -2.05810000       4.27800000
H        3.60000000      -2.70380000       3.23550000
