19
Properties=species:S:1:pos:R:3 gdb_73169=T pbc="F F F"
C       -0.25810000       1.40800000      -0.27560000
C        0.01050000      -0.04280000       0.04610000
C       -1.14120000      -0.90000000       0.60990000
O       -0.33200000      -1.35770000       1.72100000
C        0.79920000      -0.59040000       1.27490000
C        1.73990000      -1.39910000       0.35460000
C        0.98730000      -0.83100000      -0.90530000
C        0.42360000      -1.76430000      -1.85750000
C       -0.05960000      -2.54770000      -2.63280000
H        0.67230000       1.96060000      -0.44590000
H       -0.86710000       1.49850000      -1.18320000
H       -0.79800000       1.90170000       0.53950000
H       -2.00280000      -0.31700000       0.96000000
H       -1.49220000      -1.72250000      -0.02330000
H        1.23530000       0.01930000       2.07130000
H        2.79250000      -1.10940000       0.39300000
H        1.65180000      -2.47660000       0.49880000
H        1.62530000      -0.11580000      -1.43500000
H       -0.47610000      -3.23800000      -3.32370000
