25
Properties=species:S:1:pos:R:3 gdb_41896=T pbc="F F F"
C       -0.02180000       1.53370000       0.09850000
C        1.39740000       2.15160000      -0.02340000
C        2.50910000       1.10490000      -0.23330000
C        2.40680000       0.01440000       0.85330000
C        0.98110000      -0.60640000       0.97540000
C       -0.03650000      -0.00320000      -0.01520000
C        0.16630000      -0.50800000      -1.46620000
C        1.62720000      -0.69590000      -1.89570000
C        2.53260000       0.52190000      -1.66900000
H       -0.45320000       1.80700000       1.06870000
H       -0.69350000       1.95670000      -0.65670000
H        1.43210000       2.88180000      -0.83950000
H        1.62710000       2.71310000       0.88980000
H        3.46420000       1.62580000      -0.09240000
H        3.14900000      -0.76790000       0.65960000
H        2.68860000       0.46260000       1.81290000
H        1.02470000      -1.69290000       0.84130000
H        0.60340000      -0.44570000       1.99150000
H       -1.03610000      -0.33340000       0.29330000
H       -0.34500000      -1.47240000      -1.57870000
H       -0.33930000       0.18220000      -2.15480000
H        2.04650000      -1.55230000      -1.35300000
H        1.65900000      -0.97750000      -2.95510000
H        2.27140000       1.31830000      -2.37860000
H        3.56110000       0.22770000      -1.91320000
