20
Properties=species:S:1:pos:R:3 gdb_28454=T pbc="F F F"
C        0.04540000       1.52380000      -0.02240000
C        0.04280000       0.01850000       0.01670000
C        0.08050000      -0.72500000      -1.16340000
N        0.08170000      -2.05550000      -1.23600000
C        0.04360000      -2.73910000      -0.08520000
C        0.04570000      -4.24230000      -0.19270000
C        0.00400000      -2.09060000       1.14990000
C        0.00290000      -0.69910000       1.22300000
C       -0.03970000       0.00640000       2.55310000
H        0.90870000       1.94390000       0.50770000
H        0.07930000       1.88700000      -1.05300000
H       -0.84970000       1.94550000       0.45050000
H        0.11200000      -0.19910000      -2.11720000
H        0.94220000      -4.58610000      -0.71870000
H        0.01340000      -4.71980000       0.78990000
H       -0.81540000      -4.58450000      -0.77580000
H       -0.02630000      -2.67670000       2.06370000
H        0.83560000       0.65180000       2.69150000
H       -0.92110000       0.65340000       2.63430000
H       -0.06730000      -0.70740000       3.37980000
