15
Properties=species:S:1:pos:R:3 gdb_32553=T pbc="F F F"
C        0.06520000       1.38690000       0.00680000
O       -0.01610000      -0.02510000       0.00310000
C       -1.24140000      -0.57940000       0.01090000
C       -2.41310000       0.10140000       0.02240000
N       -3.59870000      -0.61600000       0.02920000
C       -3.56940000      -1.97160000       0.02420000
N       -2.49850000      -2.68880000       0.01340000
C       -1.23810000      -2.06840000       0.00620000
O       -0.20560000      -2.70380000      -0.00530000
H        1.12750000       1.63300000      -0.00080000
H       -0.41420000       1.81870000      -0.88250000
H       -0.40010000       1.81310000       0.90640000
H       -2.50620000       1.17740000       0.02670000
H       -4.48020000      -0.12940000       0.03770000
H       -4.54640000      -2.45290000       0.02990000
