20
Properties=species:S:1:pos:R:3 gdb_8414=T pbc="F F F"
C       -0.20560000       1.59700000       0.02260000
C        0.00070000       0.08210000       0.01880000
C       -1.32580000      -0.63740000      -0.24520000
C        1.13560000      -0.49740000      -0.89920000
C        1.74420000      -1.22170000       0.30870000
C        2.15340000      -0.23640000       1.35920000
O        2.65480000       1.04120000       1.07010000
C        0.70060000      -0.55270000       1.24180000
H        0.73450000       2.12400000       0.18630000
H       -0.63480000       1.92840000      -0.93090000
H       -0.90470000       1.89000000       0.81510000
H       -1.73890000      -0.34520000      -1.21730000
H       -1.19860000      -1.72530000      -0.24280000
H       -2.06740000      -0.38600000       0.52220000
H        0.75300000      -1.17080000      -1.66920000
H        1.79010000       0.24260000      -1.36930000
H        2.11100000      -2.24200000       0.30730000
H        2.61560000      -0.69750000       2.23410000
H        3.53310000       0.93250000       0.68990000
H        0.15960000      -0.98040000       2.08040000
