21
Properties=species:S:1:pos:R:3 gdb_93030=T pbc="F F F"
O       -0.03310000       1.35820000      -0.34210000
C        0.02650000      -0.02300000       0.00260000
C        0.77250000      -0.23890000       1.33960000
C       -0.00040000      -0.06770000       2.62950000
C       -1.26680000      -0.42260000       2.86000000
C       -2.22780000      -0.99150000       1.84880000
C       -1.57600000      -1.92800000       0.78450000
C       -1.36420000      -0.68180000      -0.12370000
C       -2.49830000       0.01230000       0.68470000
H       -0.52150000       1.80990000       0.35440000
H        0.66440000      -0.45730000      -0.77620000
H        1.22370000      -1.24120000       1.33130000
H        1.61830000       0.45660000       1.32790000
H        0.56890000       0.34850000       3.45780000
H       -1.67030000      -0.25450000       3.85620000
H       -3.11180000      -1.38760000       2.35390000
H       -0.70380000      -2.51210000       1.08530000
H       -2.31940000      -2.60720000       0.35830000
H       -1.57880000      -0.81450000      -1.18710000
H       -3.47080000      -0.15860000       0.21440000
H       -2.41160000       1.07730000       0.91640000
