19
Properties=species:S:1:pos:R:3 gdb_126163=T pbc="F F F"
C       -0.13680000       1.51150000       0.03070000
C        0.00790000      -0.01080000      -0.04090000
C        0.81810000      -0.49440000      -1.25730000
C        2.28900000      -0.07590000      -1.23950000
N        0.71490000      -1.95900000      -1.35650000
N       -0.11050000      -2.56860000      -2.19980000
C        0.09580000      -3.84340000      -1.88900000
N        1.00120000      -4.00110000      -0.90030000
N        1.38340000      -2.78920000      -0.56950000
H        0.82520000       2.01060000       0.17930000
H       -0.58600000       1.91250000      -0.88480000
H       -0.78370000       1.79230000       0.86660000
H        0.48320000      -0.39380000       0.86930000
H       -0.98550000      -0.46990000      -0.09570000
H        0.33900000      -0.13740000      -2.17300000
H        2.81510000      -0.47250000      -2.11160000
H        2.36520000       1.01350000      -1.26240000
H        2.78700000      -0.44460000      -0.33980000
H       -0.40600000      -4.66060000      -2.38110000
