11
Properties=species:S:1:pos:R:3 gdb_123281=T pbc="F F F"
C        0.11150000      -3.73290000      -0.01950000
C        0.05750000      -2.52650000      -0.01220000
C       -0.00120000      -1.17170000      -0.00410000
C       -0.06040000       0.03830000       0.00320000
C       -0.10860000       1.44220000       0.01140000
N       -1.15840000       2.22140000       0.02990000
C       -0.58240000       3.46170000       0.02920000
N        0.72480000       3.47270000       0.01230000
O        1.05750000       2.12280000       0.00050000
H        0.15780000      -4.79450000      -0.02590000
H       -1.15060000       4.38030000       0.04180000
