25
Properties=species:S:1:pos:R:3 gdb_57450=T pbc="F F F"
C        0.43830000       1.38110000       0.67760000
C        0.01260000      -0.00170000       0.15150000
C        0.22490000      -1.04160000       1.26860000
C       -1.48140000       0.04530000      -0.22340000
C        0.80420000      -0.46300000      -1.09230000
C        0.85940000       0.36720000      -2.42510000
C        2.37310000       0.11700000      -2.48930000
C        3.04580000       0.74810000      -1.30980000
C        2.33930000      -0.57140000      -1.11950000
H        1.47510000       1.37970000       1.02490000
H        0.33390000       2.15950000      -0.08520000
H       -0.19250000       1.67040000       1.52570000
H       -0.34130000      -0.77390000       2.16750000
H       -0.10380000      -2.03800000       0.95210000
H        1.28170000      -1.10990000       1.54810000
H       -1.67070000       0.77750000      -1.01580000
H       -1.83270000      -0.93020000      -0.57810000
H       -2.09340000       0.32550000       0.64100000
H        0.41040000      -1.45270000      -1.35470000
H        0.28890000      -0.09430000      -3.23360000
H        0.57270000       1.42230000      -2.36340000
H        2.91990000      -0.17530000      -3.37720000
H        4.12930000       0.67510000      -1.29950000
H        2.66600000       1.67330000      -0.88860000
H        2.89320000      -1.44620000      -0.79820000
