19
Properties=species:S:1:pos:R:3 gdb_105190=T pbc="F F F"
C        0.26870000       1.22330000      -0.28320000
C        0.44460000      -0.19690000       0.18810000
O        1.74120000      -0.60990000       0.62250000
C        0.67560000      -0.61210000       1.59440000
C        0.86040000       0.36190000       2.74090000
O        2.05000000       0.05600000       3.44910000
C        0.17150000      -1.98630000       2.00740000
C        0.77310000      -3.18760000       1.31270000
O       -0.67300000      -2.07600000       2.86870000
H        0.82510000       1.93170000       0.33170000
H        0.62640000       1.31460000      -1.31400000
H       -0.79100000       1.49850000      -0.27090000
H       -0.04790000      -0.93490000      -0.44960000
H        0.86200000       1.39890000       2.38350000
H        0.03220000       0.23460000       3.44120000
H        2.76880000       0.09520000       2.80740000
H        0.74470000      -3.08640000       0.22400000
H        1.83160000      -3.26350000       1.58530000
H        0.24380000      -4.08800000       1.62550000
