19
Properties=species:S:1:pos:R:3 gdb_65936=T pbc="F F F"
C       -0.11190000       1.55830000       0.08050000
C       -0.03880000       0.02740000       0.02870000
C        1.14710000      -0.51900000      -0.83560000
N        1.93590000      -0.73430000       0.40280000
C        0.72420000      -0.61170000       1.21820000
C        0.66970000      -0.25460000       2.66620000
C        0.20110000      -1.62210000       2.19040000
C       -1.34120000      -0.55790000      -0.25820000
N       -2.37780000      -1.02560000      -0.46910000
H        0.88020000       1.96040000       0.29950000
H       -0.45550000       1.96260000      -0.87590000
H       -0.80290000       1.89190000       0.85940000
H        0.88160000      -1.43220000      -1.37880000
H        1.58920000       0.20220000      -1.52970000
H        2.38740000      -1.64140000       0.45520000
H        1.61500000      -0.19540000       3.19580000
H       -0.08010000       0.45420000       3.00300000
H       -0.86310000      -1.83600000       2.19510000
H        0.83120000      -2.47820000       2.41340000
