19
Properties=species:S:1:pos:R:3 gdb_84836=T pbc="F F F"
O       -0.25620000       1.44830000       0.41180000
C       -0.01930000       0.08450000       0.04520000
C        0.91370000      -0.59420000       1.01700000
C        0.75960000      -1.83680000       1.46920000
C       -0.38330000      -2.73130000       1.07630000
C       -1.55980000      -1.98580000       0.47200000
O       -2.40900000      -2.78580000      -0.31140000
C       -2.17880000      -0.82740000       1.20850000
C       -1.36730000      -0.59250000      -0.05200000
H        0.58650000       1.91320000       0.37780000
H        0.44740000       0.05720000      -0.95500000
H        1.77480000      -0.00630000       1.33000000
H        1.49720000      -2.25810000       2.14780000
H       -0.03930000      -3.46740000       0.33590000
H       -0.71380000      -3.31670000       1.94660000
H       -2.91520000      -3.34790000       0.28590000
H       -3.25320000      -0.70960000       1.12780000
H       -1.74390000      -0.51650000       2.15190000
H       -1.93980000      -0.34870000      -0.93990000
