19
Properties=species:S:1:pos:R:3 gdb_78372=T pbc="F F F"
O        0.08650000       1.19930000       0.13570000
C       -0.08500000      -0.17960000      -0.00090000
C       -1.51400000      -0.57000000      -0.15910000
C       -0.54310000      -0.67690000      -1.37280000
C       -0.61870000      -2.16930000      -1.24900000
C        0.00550000      -3.34340000      -1.26670000
C       -0.63410000      -4.24600000      -0.20620000
C       -1.36110000      -3.23780000       0.75130000
C       -1.72310000      -2.10500000      -0.22320000
H        0.95240000       1.42770000      -0.21850000
H        0.60760000      -0.79280000       0.57800000
H       -2.28730000       0.16950000       0.00880000
H       -0.44790000      -0.04480000      -2.24650000
H        0.85730000      -3.64530000      -1.86480000
H       -1.35030000      -4.95540000      -0.64680000
H        0.11230000      -4.85100000       0.32010000
H       -2.21450000      -3.68390000       1.26970000
H       -0.65150000      -2.88600000       1.50810000
H       -2.69740000      -2.28720000      -0.69790000
