20
Properties=species:S:1:pos:R:3 gdb_64125=T pbc="F F F"
C       -0.18140000       1.50840000       0.12810000
C        0.04840000       0.00700000      -0.04310000
C       -1.27590000      -0.76230000      -0.04570000
C        0.91210000      -0.32510000      -1.29680000
C        2.28420000      -0.72420000      -0.70370000
C        1.85440000      -1.29670000       0.66490000
O        0.83920000      -0.42050000       1.09220000
C        3.04980000      -1.64990000      -1.52720000
N        3.65270000      -2.39660000      -2.17150000
H        0.76720000       2.05260000       0.09490000
H       -0.83260000       1.89530000      -0.66200000
H       -0.65350000       1.70840000       1.09410000
H       -1.88460000      -0.48830000      -0.91380000
H       -1.09820000      -1.84140000      -0.08350000
H       -1.84680000      -0.54040000       0.86030000
H        0.48950000      -1.16720000      -1.85080000
H        0.99080000       0.52030000      -1.98270000
H        2.89120000       0.17070000      -0.53040000
H        1.49460000      -2.33060000       0.54410000
H        2.65540000      -1.29180000       1.40790000
