21
Properties=species:S:1:pos:R:3 gdb_92453=T pbc="F F F"
C       -0.13560000       1.57990000      -0.01290000
C        0.01490000       0.06820000       0.01550000
O        0.79930000      -0.39570000      -1.11830000
C        1.89020000      -1.15030000      -0.56830000
C        2.81980000      -0.16540000       0.14660000
O        2.04660000       0.21240000       1.30930000
C        0.81110000      -0.50870000       1.20130000
C        1.25750000      -1.87440000       0.63780000
C        0.18880000      -2.91230000       0.31320000
H        0.82500000       2.07080000       0.15480000
H       -0.53560000       1.89730000      -0.97980000
H       -0.83150000       1.90560000       0.76800000
H       -0.97940000      -0.39800000      -0.03820000
H        2.34230000      -1.74930000      -1.35920000
H        3.76930000      -0.61590000       0.46350000
H        3.02410000       0.71440000      -0.47250000
H        0.30520000      -0.48770000       2.16690000
H        2.02100000      -2.30060000       1.29570000
H       -0.48150000      -2.56950000      -0.47820000
H        0.65330000      -3.84320000      -0.02770000
H       -0.41310000      -3.15130000       1.19660000
