19
Properties=species:S:1:pos:R:3 gdb_43723=T pbc="F F F"
O        0.49600000       0.52610000      -1.15710000
C        0.23100000       1.36300000      -0.34390000
C       -1.08070000       1.88080000       0.26370000
C       -0.28340000       3.08520000       0.85760000
C        1.06110000       2.38990000       0.43870000
C       -0.49360000       4.45160000       0.15550000
C       -0.14300000       5.44780000       1.23500000
C       -0.10880000       4.87730000       2.43840000
C       -0.42720000       3.40270000       2.36400000
H       -1.88500000       2.10120000      -0.44420000
H       -1.46890000       1.19470000       1.02520000
H        1.59190000       1.92140000       1.27530000
H        1.77980000       2.97430000      -0.14210000
H        0.11430000       4.55400000      -0.75140000
H       -1.53950000       4.58120000      -0.16070000
H        0.01040000       6.50180000       1.03270000
H        0.07690000       5.39150000       3.37460000
H       -1.45230000       3.21260000       2.71640000
H        0.22960000       2.78010000       2.98310000
