16
Properties=species:S:1:pos:R:3 gdb_49496=T pbc="F F F"
O        0.08910000       0.08780000       0.46530000
C        0.06750000       1.25530000       0.14280000
N        1.10160000       1.91460000      -0.47900000
C        2.56250000       1.67350000      -0.20130000
C        2.84220000       2.94970000      -1.04260000
C        1.64560000       3.28870000      -0.09360000
C        2.44860000       2.58550000       1.05630000
C        0.83770000       4.46930000      -0.04050000
C        0.16950000       5.46720000       0.01600000
H       -0.83280000       1.89560000       0.22900000
H        2.99960000       0.68350000      -0.29030000
H        3.77420000       3.47720000      -0.83960000
H        2.59690000       2.89440000      -2.10270000
H        1.85470000       2.19540000       1.88350000
H        3.35610000       3.09120000       1.39400000
H       -0.42210000       6.34820000       0.06310000
