18
Properties=species:S:1:pos:R:3 gdb_110951=T pbc="F F F"
C        0.02700000       1.47970000      -0.06390000
C       -0.00520000      -0.01380000       0.03820000
N        0.57100000      -0.94540000      -1.04580000
C        0.05490000      -1.91910000       0.01020000
C        0.68460000      -0.96700000       1.07560000
C        2.20100000      -0.92720000       1.21030000
O        2.68790000      -2.04620000       1.94090000
C       -1.19120000      -1.01040000       0.05630000
O       -2.37830000      -1.04080000      -0.05060000
H        1.05060000       1.84750000      -0.18130000
H       -0.56370000       1.82390000      -0.91880000
H       -0.39990000       1.92720000       0.83900000
H       -0.02770000      -0.95560000      -1.87690000
H        0.15740000      -2.99700000      -0.10200000
H        0.20980000      -1.00600000       2.05950000
H        2.67390000      -0.84360000       0.22640000
H        2.48530000      -0.04750000       1.79810000
H        2.60500000      -2.82120000       1.37660000
