21
Properties=species:S:1:pos:R:3 gdb_104510=T pbc="F F F"
C        1.82840000      -1.08190000       0.96140000
C        0.59080000      -0.48740000       0.27470000
C        0.73600000      -0.35160000      -1.23440000
C        1.85970000       0.57740000      -1.70990000
C        1.73310000       1.93120000      -1.16900000
N        1.62070000       2.99070000      -0.72110000
C        0.39610000      -1.51110000      -2.11500000
N       -0.42430000      -0.30610000      -2.12370000
C       -1.78230000      -0.38000000      -1.60550000
H        2.08260000      -2.06110000       0.54230000
H        2.70390000      -0.43340000       0.85880000
H        1.64590000      -1.21110000       2.03210000
H       -0.27350000      -1.11890000       0.49660000
H        0.37520000       0.49930000       0.70290000
H        2.84000000       0.17960000      -1.42520000
H        1.82910000       0.63370000      -2.80140000
H        0.96060000      -1.71880000      -3.02170000
H       -0.00340000      -2.39700000      -1.62100000
H       -1.93760000      -1.14040000      -0.82560000
H       -2.07030000       0.59550000      -1.20240000
H       -2.45400000      -0.61440000      -2.43710000
