19
Properties=species:S:1:pos:R:3 gdb_73016=T pbc="F F F"
O        0.03870000       1.43950000       0.24480000
C       -0.00030000       0.06130000       0.13170000
C       -0.82230000      -0.70490000      -0.91100000
C       -1.17520000      -1.76110000       0.19030000
C       -0.37380000      -0.95030000       1.21830000
C        1.04620000      -0.81260000       0.75190000
C        2.04950000      -1.80500000       0.16480000
O        3.11440000      -1.20320000       0.93570000
C        2.21080000      -0.27630000       1.57710000
H        0.76540000       1.77240000      -0.29490000
H       -1.70000000      -0.13650000      -1.22580000
H       -0.29020000      -1.05820000      -1.80070000
H       -2.24430000      -1.79430000       0.40760000
H       -0.82310000      -2.78210000       0.01390000
H       -0.64310000      -0.78780000       2.25580000
H        1.89370000      -2.85800000       0.43530000
H        2.23550000      -1.73730000      -0.91550000
H        2.48930000       0.77040000       1.39520000
H        2.15120000      -0.44230000       2.66090000
