22
Properties=species:S:1:pos:R:3 gdb_121949=T pbc="F F F"
C       -0.29780000       1.34060000      -0.23490000
O       -0.29850000      -0.06250000      -0.33040000
C        0.77430000      -0.55910000      -1.10180000
C        0.68550000      -2.07920000      -1.12330000
C        1.82410000      -2.73290000      -1.91370000
O        3.10750000      -2.35710000      -1.40870000
C        1.67150000      -4.23860000      -1.96950000
C        1.11920000      -4.89280000      -3.18260000
N        2.54470000      -5.02880000      -2.84530000
H        0.62410000       1.71920000       0.23530000
H       -0.39640000       1.81920000      -1.22270000
H       -1.15250000       1.62860000       0.38230000
H        0.72600000      -0.15850000      -2.13040000
H        1.74050000      -0.24290000      -0.67990000
H        0.69760000      -2.44920000      -0.08930000
H       -0.27670000      -2.38050000      -1.55330000
H        1.82160000      -2.34500000      -2.94180000
H        3.21560000      -2.76850000      -0.54340000
H        1.48820000      -4.70860000      -1.00220000
H        0.53650000      -5.80530000      -3.09470000
H        0.83440000      -4.25450000      -4.01580000
H        3.10700000      -4.39970000      -3.41460000
