20
Properties=species:S:1:pos:R:3 gdb_35744=T pbc="F F F"
N       -0.33050000      -0.97490000      -0.60180000
C       -0.13240000       0.13270000      -0.33600000
C        0.12240000       1.52590000       0.01220000
C       -0.67830000       2.01910000       1.24650000
C        0.10070000       3.26340000       1.74770000
C        1.47140000       3.20290000       1.05110000
C        2.01080000       4.41510000       0.32760000
C        2.67530000       3.92090000       1.59080000
C        1.58700000       1.82760000       0.40670000
H       -0.13830000       2.14290000      -0.85640000
H       -1.72090000       2.23060000       1.00040000
H       -0.67770000       1.23140000       2.00550000
H       -0.42530000       4.18940000       1.49650000
H        0.20020000       3.23990000       2.83720000
H        2.53050000       4.26630000      -0.61380000
H        1.43920000       5.33640000       0.37980000
H        2.55280000       4.50880000       2.49490000
H        3.64390000       3.43880000       1.50440000
H        1.92590000       1.07760000       1.13180000
H        2.27060000       1.80020000      -0.44550000
