23
Properties=species:S:1:pos:R:3 gdb_61586=T pbc="F F F"
C       -0.00720000       1.50720000      -0.30370000
C        0.08450000       0.00270000      -0.03050000
O        0.68310000      -0.70560000      -1.11520000
C       -0.13510000      -0.90290000      -2.22450000
C       -0.04540000       0.02610000      -3.41100000
C        0.54400000      -1.36990000      -3.47040000
C        0.90140000      -0.28970000       1.21510000
C        1.51580000      -1.64240000       1.45240000
C        2.39790000      -0.45560000       1.14340000
H        0.99120000       1.92290000      -0.47040000
H       -0.62490000       1.71540000      -1.18060000
H       -0.45430000       2.01950000       0.55470000
H       -0.93520000      -0.39180000       0.12040000
H       -1.11220000      -1.32420000      -1.98400000
H       -0.94570000       0.24130000      -3.97680000
H        0.65510000       0.84940000      -3.33500000
H        1.62420000      -1.45050000      -3.42620000
H        0.05560000      -2.12410000      -4.07690000
H        0.51720000       0.22510000       2.09150000
H        1.51110000      -2.03790000       2.46230000
H        1.39900000      -2.38200000       0.66950000
H        2.85380000      -0.42680000       0.16100000
H        3.00130000      -0.03360000       1.93950000
