18
Properties=species:S:1:pos:R:3 gdb_12826=T pbc="F F F"
O       -0.05270000       1.40460000       0.04350000
C       -0.00650000       0.00500000      -0.02630000
C       -0.46600000      -0.67580000      -1.28450000
C       -1.33530000      -0.69840000      -0.03580000
C       -1.50570000      -2.00120000       0.74300000
C       -0.29570000      -2.28440000       1.64140000
O        0.93110000      -2.00920000       0.97960000
C        1.11100000      -0.61830000       0.79410000
H        0.65170000       1.75250000      -0.51490000
H       -0.78430000      -0.04250000      -2.10520000
H        0.02490000      -1.60180000      -1.56820000
H       -2.19390000      -0.03620000      -0.06430000
H       -2.40450000      -1.95260000       1.36720000
H       -1.65110000      -2.83430000       0.04560000
H       -0.35790000      -1.67990000       2.56130000
H       -0.25870000      -3.33790000       1.93290000
H        2.08190000      -0.49570000       0.29890000
H        1.15370000      -0.09690000       1.76520000
