12
Properties=species:S:1:pos:R:3 gdb_21864=T pbc="F F F"
O        0.08000000       1.36910000      -0.09950000
C        0.06030000       0.02170000      -0.03550000
C       -0.03210000      -0.75120000      -1.19190000
N       -0.05610000      -2.08380000      -1.19610000
N        0.01030000      -2.74660000      -0.04690000
C        0.10010000      -2.06340000       1.09480000
C        0.12970000      -0.67480000       1.16680000
O        0.22020000       0.06090000       2.30850000
H        0.14750000       1.71520000       0.80000000
H       -0.08910000      -0.26290000      -2.15990000
H        0.15100000      -2.66390000       2.00170000
H        0.26290000      -0.52000000       3.07570000
