20
Properties=species:S:1:pos:R:3 gdb_36812=T pbc="F F F"
C       -0.05650000      -1.24980000      -0.00400000
C       -0.05900000      -0.04790000       0.00250000
C       -0.02600000       1.40920000       0.01040000
C        1.40720000       1.97880000      -0.00100000
C        1.42910000       3.51020000       0.00760000
C        2.84980000       4.08230000      -0.00370000
C        2.85260000       5.62430000       0.00510000
C        4.20130000       6.18650000      -0.00570000
N        5.27490000       6.61390000      -0.01380000
H       -0.06760000      -2.31140000      -0.00960000
H       -0.57760000       1.79220000      -0.85850000
H       -0.55970000       1.78220000       0.89480000
H        1.95090000       1.59220000       0.86880000
H        1.93290000       1.60220000      -0.88610000
H        0.87580000       3.88930000      -0.86290000
H        0.89370000       3.87930000       0.89340000
H        3.40800000       3.71900000       0.86640000
H        3.39010000       3.72900000      -0.88910000
H        2.30940000       6.00930000      -0.86610000
H        2.32740000       5.99930000       0.89150000
