23
Properties=species:S:1:pos:R:3 gdb_117638=T pbc="F F F"
C        0.19000000       1.62180000      -0.02280000
C        0.00840000       0.10110000      -0.00110000
C        0.67440000      -0.54690000       1.21740000
C        0.69070000      -2.08900000       1.21620000
C       -0.71120000      -2.70800000       1.12470000
O        1.41130000      -2.59820000       0.09210000
C        1.30780000      -2.58090000       2.55030000
C        2.36150000      -3.66860000       2.47940000
O        0.93030000      -2.11760000       3.60290000
H        1.25050000       1.89570000      -0.06000000
H       -0.29940000       2.06770000      -0.89420000
H       -0.23730000       2.08480000       0.87350000
H       -1.06220000      -0.13280000      -0.00610000
H        0.42220000      -0.33810000      -0.91640000
H        1.71890000      -0.20150000       1.28060000
H        0.19950000      -0.21410000       2.14530000
H       -1.18810000      -2.42610000       0.18380000
H       -0.64470000      -3.79990000       1.15150000
H       -1.32640000      -2.37480000       1.96320000
H        2.22010000      -2.08440000      -0.00610000
H        2.03070000      -4.49360000       1.84280000
H        3.27660000      -3.27800000       2.01940000
H        2.58660000      -4.01830000       3.48760000
