20
Properties=species:S:1:pos:R:3 gdb_88363=T pbc="F F F"
C        0.09510000       1.49910000       0.01000000
C       -0.02480000      -0.04420000       0.06220000
C        0.57340000      -0.55280000       1.39280000
C       -1.45940000      -0.39120000       0.02640000
N       -2.58830000      -0.63800000      -0.00580000
C        0.62470000      -0.62300000      -1.20720000
C        2.04880000      -1.14230000      -1.26160000
C        0.88120000      -2.07810000      -1.46920000
O        0.53840000      -2.99610000      -0.47330000
H        1.15260000       1.77920000      -0.00180000
H       -0.38180000       1.90460000      -0.88620000
H       -0.37730000       1.95430000       0.88450000
H        0.01860000      -0.12410000       2.23160000
H        0.53230000      -1.63900000       1.45570000
H        1.61430000      -0.22720000       1.47680000
H        0.30420000      -0.07810000      -2.09120000
H        2.67370000      -0.86650000      -2.10420000
H        2.57840000      -1.25010000      -0.32190000
H        0.68530000      -2.42500000      -2.48340000
H        1.16960000      -3.72260000      -0.50560000
