18
Properties=species:S:1:pos:R:3 gdb_14399=T pbc="F F F"
C        0.02290000       1.55230000      -0.02720000
C        0.00430000       0.04770000      -0.07990000
C        0.40280000      -0.81390000      -1.29320000
C       -0.31900000      -1.95960000      -0.53770000
C        0.62160000      -2.17010000       0.66720000
C        0.34190000      -0.77040000       1.24260000
O       -1.08150000      -0.87390000       1.55560000
C       -1.24870000      -0.83840000       0.13540000
H        1.04910000       1.93730000      -0.00150000
H       -0.47190000       1.98720000      -0.90240000
H       -0.49360000       1.91240000       0.86880000
H       -0.13830000      -0.48500000      -2.18640000
H        1.46080000      -0.95310000      -1.53770000
H       -0.72160000      -2.83000000      -1.05190000
H        0.30360000      -2.94400000       1.36880000
H        1.65830000      -2.34460000       0.36620000
H        0.94310000      -0.37070000       2.05900000
H       -2.26090000      -0.65430000      -0.22320000
