17
Properties=species:S:1:pos:R:3 gdb_104938=T pbc="F F F"
C       -0.42000000       1.40390000      -0.02710000
C        0.21080000       0.01450000       0.10650000
C        0.83060000      -0.47600000      -1.19250000
C        0.70710000      -1.89520000      -1.59380000
O       -0.11650000      -0.90410000      -2.19550000
C        1.94860000       0.28500000      -1.69440000
C        2.88900000       0.94390000      -2.07890000
C        3.94750000       1.67420000      -2.52100000
C        4.88740000       2.32400000      -2.91200000
H        0.32770000       2.15160000      -0.30760000
H       -1.20000000       1.39930000      -0.79410000
H       -0.87210000       1.71480000       0.91890000
H        0.98530000       0.01960000       0.88250000
H       -0.54740000      -0.71560000       0.40880000
H        1.46260000      -2.33630000      -2.24130000
H        0.20220000      -2.58500000      -0.91810000
H        5.71370000       2.89380000      -3.25830000
