21
Properties=species:S:1:pos:R:3 gdb_76794=T pbc="F F F"
C       -0.76840000       1.16030000      -0.11540000
C       -0.02470000      -0.16710000      -0.12830000
C        1.29880000      -0.26740000      -0.94180000
O        1.89820000       1.01270000      -1.08100000
C        1.94790000      -1.05740000       0.24680000
O        3.24190000      -0.65920000       0.61630000
C        0.75940000      -0.61960000       1.11940000
C        0.91410000       0.13060000       2.41190000
C        0.26900000      -1.23530000       2.39260000
H       -0.09900000       1.98390000       0.14170000
H       -1.20380000       1.37540000      -1.09670000
H       -1.58710000       1.13870000       0.61240000
H       -0.69980000      -0.96680000      -0.45650000
H        1.23960000      -0.77790000      -1.91080000
H        2.72090000       0.89110000      -1.56660000
H        1.98460000      -2.13790000       0.07700000
H        3.21860000       0.30700000       0.62420000
H        1.91730000       0.21150000       2.81850000
H        0.28260000       0.99470000       2.59050000
H       -0.80360000      -1.29280000       2.55350000
H        0.82720000      -2.07130000       2.80330000
