18
Properties=species:S:1:pos:R:3 gdb_19356=T pbc="F F F"
C       -0.22400000       1.51680000      -0.01400000
C        0.09510000       0.01620000       0.04780000
C        0.77690000      -0.48830000      -1.19320000
C        0.07790000      -0.91940000      -2.45550000
C        0.94800000      -1.90960000      -1.71930000
C        2.46190000      -1.61370000      -1.95620000
O        2.60250000      -0.50190000      -2.85400000
C        2.30550000      -0.24810000      -1.47390000
H        0.68500000       2.10970000      -0.16220000
H       -0.90080000       1.73830000      -0.84510000
H       -0.69730000       1.85840000       0.91170000
H        0.72680000      -0.18840000       0.92340000
H       -0.83010000      -0.55250000       0.20250000
H       -0.98870000      -1.08960000      -2.34240000
H        0.38660000      -0.53950000      -3.42120000
H        0.57450000      -2.83270000      -1.29520000
H        3.28670000      -2.31280000      -1.89260000
H        2.97160000       0.40980000      -0.92740000
