15
Properties=species:S:1:pos:R:3 gdb_18452=T pbc="F F F"
O        0.28810000       1.42820000       0.12200000
C        0.05310000       0.06010000       0.10780000
C        0.20660000      -0.81130000       1.39080000
N       -1.13710000      -1.46250000       1.16030000
C       -2.19700000      -0.39870000       1.24560000
C       -2.19110000       0.70020000       2.24670000
O       -1.35420000       1.56930000       2.37760000
C       -1.37110000      -0.51390000       0.01100000
H       -0.17410000       1.77860000       0.89970000
H        0.65380000      -0.35420000      -0.70690000
H        0.98270000      -1.57630000       1.33380000
H        0.29860000      -0.27020000       2.33430000
H       -3.17290000      -0.87360000       1.17470000
H       -3.06050000       0.67280000       2.93560000
H       -1.85640000      -0.84260000      -0.90420000
