19
Properties=species:S:1:pos:R:3 gdb_37333=T pbc="F F F"
C       -0.01910000       1.52760000       0.13160000
C        1.30180000       0.81330000      -0.01670000
C        0.00270000       0.02520000      -0.00790000
C        0.02940000      -0.63870000      -1.40740000
O        1.43830000      -0.89410000      -1.58600000
C        1.86450000       0.47450000      -1.41990000
C        1.05500000       1.19540000      -2.50240000
C        0.65530000       0.37310000      -3.70020000
C       -0.24680000       0.40580000      -2.49360000
H       -0.24590000       1.91250000       1.12170000
H       -0.39860000       2.14420000      -0.67230000
H        1.98450000       0.77860000       0.82430000
H       -0.27350000      -0.59110000       0.83960000
H       -0.51910000      -1.57830000      -1.47660000
H        2.95040000       0.52640000      -1.50010000
H        1.07660000       2.27700000      -2.55530000
H        0.31020000       0.93230000      -4.56320000
H        1.20380000      -0.53370000      -3.92450000
H       -1.21640000       0.88600000      -2.53970000
