19
Properties=species:S:1:pos:R:3 gdb_85565=T pbc="F F F"
C       -0.07780000       1.55020000      -0.00230000
C        0.05840000       0.02980000       0.03720000
C        0.75410000      -0.53530000      -1.22940000
C        0.95820000      -2.04360000      -1.16240000
O        0.59980000      -2.78900000      -2.04250000
C        1.65180000      -2.53640000       0.10170000
C        0.98580000      -1.96800000       1.37530000
C        0.79360000      -0.45820000       1.28840000
O        1.19250000       0.29450000       2.14540000
H        0.90630000       2.02660000      -0.04020000
H       -0.64770000       1.86290000      -0.88210000
H       -0.58440000       1.91930000       0.89230000
H       -0.94380000      -0.42410000       0.08190000
H        0.18130000      -0.29820000      -2.12890000
H        1.74160000      -0.06180000      -1.32690000
H        1.65590000      -3.62820000       0.10150000
H        2.69590000      -2.19670000       0.06350000
H       -0.00420000      -2.42780000       1.49650000
H        1.57160000      -2.19520000       2.26830000
