19
Properties=species:S:1:pos:R:3 gdb_38194=T pbc="F F F"
C        0.00000000       1.54820000       0.02090000
C       -0.47250000       1.84900000       1.49700000
C        0.45410000       0.80940000       2.14920000
C        1.89950000       0.92690000       2.72530000
C        1.84680000      -0.48110000       2.03410000
C        0.42920000      -0.64970000       2.70650000
C        1.09420000       0.21890000       0.88510000
C       -0.06320000       0.00000000      -0.10000000
O        1.46140000       1.42040000       0.13480000
H       -0.31170000       2.21450000      -0.78380000
H       -0.25090000       2.87610000       1.79540000
H       -1.54220000       1.66780000       1.63370000
H        2.54350000       1.67380000       2.26400000
H        1.99690000       0.91170000       3.81410000
H        2.64010000      -1.22910000       1.99150000
H        0.44410000      -0.76330000       3.79320000
H       -0.25770000      -1.36190000       2.24490000
H       -0.96180000      -0.52700000       0.22820000
H        0.26200000      -0.33230000      -1.08640000
