23
Properties=species:S:1:pos:R:3 gdb_104451=T pbc="F F F"
C       -0.11370000       1.57320000       0.01170000
C       -0.06450000       0.04450000       0.00290000
C       -1.44410000      -0.62360000       0.01250000
C       -1.30770000      -2.15490000       0.00300000
O       -2.08990000      -0.17390000       1.19740000
C       -3.48360000      -0.43630000       1.27090000
C       -4.20030000       0.12210000       0.04290000
C       -3.50740000      -0.42300000      -1.20450000
O       -2.11250000      -0.16120000      -1.15490000
H        0.89880000       1.98820000       0.00410000
H       -0.64530000       1.94800000      -0.86610000
H       -0.62820000       1.93840000       0.90360000
H        0.46680000      -0.31310000      -0.88570000
H        0.48380000      -0.32270000       0.87710000
H       -0.75090000      -2.48000000       0.88550000
H       -2.27320000      -2.66570000       0.00940000
H       -0.76780000      -2.47040000      -0.89340000
H       -3.67800000      -1.51670000       1.36470000
H       -3.82740000       0.03930000       2.19380000
H       -5.25950000      -0.15810000       0.05160000
H       -4.13190000       1.21510000       0.04820000
H       -3.70360000      -1.50230000      -1.30610000
H       -3.86870000       0.06250000      -2.11540000
