21
Properties=species:S:1:pos:R:3 gdb_54112=T pbc="F F F"
C       -0.02250000       1.51520000      -0.06920000
C        0.09970000       0.00190000      -0.19220000
O        1.18350000      -0.50100000      -0.40660000
C       -1.17190000      -0.80190000      -0.08380000
C       -2.30760000      -0.15950000       0.70610000
C       -1.67860000      -1.58570000      -1.29740000
C       -0.55330000      -2.23950000      -2.11160000
C       -0.11620000      -3.03250000      -0.83840000
C       -1.21770000      -2.31820000      -0.04180000
H        0.94970000       1.96280000      -0.27820000
H       -0.76980000       1.90750000      -0.76740000
H       -0.34490000       1.80170000       0.93740000
H       -2.62260000       0.79670000       0.27780000
H       -3.18170000      -0.81720000       0.71210000
H       -2.02210000       0.01570000       1.74920000
H       -2.68410000      -1.39220000      -1.65590000
H       -0.94320000      -2.88820000      -2.89900000
H        0.19140000      -1.56690000      -2.54250000
H       -0.34020000      -4.09790000      -0.93580000
H        0.90780000      -2.89950000      -0.49720000
H       -1.82480000      -2.78530000       0.72640000
