19
Properties=species:S:1:pos:R:3 gdb_43393=T pbc="F F F"
O        0.01780000       0.04020000      -0.34740000
C        0.01410000       1.22610000      -0.06520000
C       -1.25210000       1.95870000       0.15500000
C       -1.30030000       3.29060000       0.28470000
C       -0.07150000       4.15660000       0.30420000
C        1.16380000       3.36080000       0.74610000
C        1.27690000       2.03940000       0.00690000
C        2.57190000       1.26490000       0.03920000
C        2.16290000       1.93660000      -1.23420000
H       -2.15030000       1.34970000       0.12950000
H       -2.26480000       3.78820000       0.36110000
H        0.08150000       4.57800000      -0.70100000
H       -0.23030000       5.01620000       0.96500000
H        2.07380000       3.95340000       0.60370000
H        1.08200000       3.16290000       1.82310000
H        3.38840000       1.69350000       0.61050000
H        2.47740000       0.18640000       0.08600000
H        1.80470000       1.30950000      -2.04250000
H        2.68440000       2.83700000      -1.54240000
