16
Properties=species:S:1:pos:R:3 gdb_4501=T pbc="F F F"
C       -0.19070000       1.46860000       0.03980000
C       -0.06000000      -0.01550000      -0.01850000
N       -0.18040000      -0.76460000      -1.08610000
C        0.01690000      -2.07870000      -0.68370000
C       -0.04580000      -3.22450000      -1.64000000
C        0.26000000      -2.09260000       0.66320000
O        0.51710000      -3.05640000       1.58470000
N        0.21220000      -0.78750000       1.08840000
H        0.72900000       1.95080000       0.39270000
H       -0.40590000       1.83420000      -0.96520000
H       -1.00400000       1.78590000       0.70380000
H        0.13600000      -4.18200000      -1.13700000
H       -1.02650000      -3.29140000      -2.12420000
H        0.70210000      -3.12650000      -2.43500000
H        0.51740000      -3.90800000       1.13650000
H        0.35330000      -0.48230000       2.03680000
