11
Properties=species:S:1:pos:R:3 gdb_2737=T pbc="F F F"
O       -0.04110000      -0.01270000      -0.10260000
C       -0.04280000       1.16670000       0.01800000
C       -1.08730000       2.26480000       0.24590000
N        0.02490000       3.21950000       0.48910000
C        1.06710000       2.27770000       0.01440000
C        2.21930000       2.10560000       0.88950000
N        3.13080000       1.94760000       1.58210000
H       -1.69230000       2.44470000      -0.65360000
H       -1.75680000       2.12040000       1.09990000
H       -0.02310000       4.08260000      -0.03770000
H        1.41810000       2.44180000      -1.01530000
