18
Properties=species:S:1:pos:R:3 gdb_9949=T pbc="F F F"
C       -0.16290000       1.36730000      -0.09990000
C        0.13860000      -0.10700000       0.04160000
C        1.52660000      -0.64210000      -0.08410000
O        2.61240000       0.22210000      -0.21940000
C        0.84810000      -0.65340000       1.29420000
C        1.34430000       0.27240000       2.38610000
C        0.39320000      -2.00270000       1.72170000
O       -0.08390000      -2.83380000       0.98270000
H        0.69140000       1.98610000       0.18250000
H       -0.42110000       1.60420000      -1.13830000
H       -1.01470000       1.65960000       0.52230000
H       -0.63160000      -0.78260000      -0.32170000
H        1.65180000      -1.62210000      -0.54210000
H        2.56200000       0.63350000      -1.08880000
H        2.04080000       1.01090000       1.98800000
H        0.52120000       0.80020000       2.87970000
H        1.87750000      -0.29990000       3.15330000
H        0.53460000      -2.21950000       2.80470000
