15
Properties=species:S:1:pos:R:3 gdb_66557=T pbc="F F F"
O       -0.04840000       1.34510000       0.08920000
C        0.06170000      -0.02100000       0.04680000
C       -1.05950000      -1.02580000       0.11050000
C       -0.30010000      -0.88650000      -1.17440000
N        0.45370000      -2.18760000      -1.01300000
C        1.86620000      -1.86880000      -0.97500000
N        2.28220000      -1.20560000       0.03170000
C        1.05870000      -0.94910000       0.80660000
C        0.04700000      -2.06930000       0.44910000
H        0.66270000       1.72630000      -0.43940000
H       -2.11120000      -0.96230000       0.34100000
H       -0.60210000      -0.48840000      -2.13400000
H        2.49670000      -2.15110000      -1.81380000
H        1.22800000      -0.70630000       1.85360000
H       -0.04990000      -2.99480000       1.01400000
