16
Properties=species:S:1:pos:R:3 gdb_25645=T pbc="F F F"
C       -0.09610000       1.43430000       0.03770000
C       -0.01930000      -0.01620000       0.01740000
C        0.05050000      -1.21960000       0.00070000
C        0.13270000      -2.62600000      -0.01850000
N        1.19500000      -3.37960000       0.01880000
C        0.71640000      -4.68140000      -0.02510000
C        1.63080000      -5.85920000      -0.00130000
C       -0.63950000      -4.63590000      -0.08790000
O       -1.03390000      -3.33150000      -0.08500000
H        0.90440000       1.87790000       0.00100000
H       -0.66320000       1.81190000      -0.82020000
H       -0.58900000       1.79180000       0.94850000
H        2.23510000      -5.86440000       0.91170000
H        1.06770000      -6.79480000      -0.04750000
H        2.32390000      -5.83060000      -0.84840000
H       -1.42030000      -5.37550000      -0.13680000
