19
Properties=species:S:1:pos:R:3 gdb_102368=T pbc="F F F"
C       -0.09860000       1.66210000       0.14590000
C        0.00100000       0.13930000       0.00340000
C        0.72280000      -0.34500000      -1.26660000
C        0.74350000      -1.90110000      -1.26810000
O        1.41030000      -2.33820000      -2.44150000
C        0.00200000       0.06470000      -2.55200000
O       -1.16890000       0.34050000      -2.60260000
C        2.18760000       0.09240000      -1.32020000
O        2.83190000       0.39060000      -0.34770000
H        0.89160000       2.12240000       0.19020000
H       -0.65810000       2.10270000      -0.68310000
H       -0.62350000       1.91610000       1.07150000
H        0.53340000      -0.27180000       0.86680000
H       -1.00530000      -0.29130000      -0.00030000
H        1.25840000      -2.23860000      -0.35690000
H       -0.29600000      -2.25840000      -1.23280000
H        1.42590000      -3.29970000      -2.44670000
H        0.62920000       0.06270000      -3.46840000
H        2.64660000       0.08910000      -2.33130000
