17
Properties=species:S:1:pos:R:3 gdb_35117=T pbc="F F F"
N       -0.65360000      -0.77190000      -1.27780000
C       -0.36130000       0.15890000      -0.65830000
C        0.01180000       1.34170000       0.12970000
C       -0.47500000       1.22780000       1.55980000
C        0.23410000       1.69300000       2.58290000
C        1.58260000       2.34100000       2.43030000
N        2.28080000       2.09470000       1.16650000
C        2.46530000       0.70250000       0.75900000
C        1.52230000       1.58870000       0.02640000
H       -0.49940000       2.19580000      -0.33940000
H       -1.44830000       0.77180000       1.70660000
H       -0.16770000       1.62820000       3.59090000
H        1.47500000       3.42970000       2.54060000
H        2.24640000       2.02400000       3.24400000
H        3.43560000       0.46370000       0.33380000
H        2.02690000      -0.07890000       1.37640000
H        1.82780000       2.00220000      -0.93170000
