16
Properties=species:S:1:pos:R:3 gdb_31179=T pbc="F F F"
C        0.10900000       1.45260000       0.06790000
N       -0.18820000       0.04590000      -0.14120000
C        0.49890000      -0.69140000      -1.07230000
C        0.68880000      -2.06830000      -1.22760000
C        0.21920000      -3.09690000      -0.32650000
O        0.37060000      -4.29360000      -0.44140000
N        1.41650000      -2.30810000      -2.38870000
C        1.65890000      -1.14670000      -2.90630000
N        1.12600000      -0.11650000      -2.14350000
H        1.16940000       1.64700000       0.28800000
H       -0.17840000       2.04200000      -0.81090000
H       -0.48980000       1.81600000       0.90470000
H       -0.41990000      -0.47140000       0.69170000
H       -0.33620000      -2.68580000       0.55670000
H        2.20830000      -0.94510000      -3.81380000
H        1.17100000       0.86680000      -2.35080000
