21
Properties=species:S:1:pos:R:3 gdb_114745=T pbc="F F F"
C       -0.22650000       0.55010000       0.56860000
O        0.75710000      -0.36330000       0.11690000
C        0.86680000      -0.44730000      -1.30360000
C        2.33630000      -0.68030000      -1.70510000
C        2.50160000      -2.19090000      -1.82770000
C        2.00250000      -3.03040000      -0.68000000
C        1.12710000      -2.81330000      -1.89590000
C        0.08990000      -1.70190000      -1.82910000
O       -1.06180000      -1.99580000      -1.06320000
H        0.00030000       1.57460000       0.23720000
H       -1.22840000       0.27780000       0.21530000
H       -0.20900000       0.52400000       1.66150000
H        0.47090000       0.47550000      -1.74380000
H        2.52830000      -0.20950000      -2.67620000
H        3.00820000      -0.21960000      -0.97450000
H        3.31760000      -2.57100000      -2.43210000
H        2.43240000      -4.01950000      -0.56530000
H        1.75340000      -2.53640000       0.25250000
H        0.91690000      -3.66240000      -2.53620000
H       -0.27950000      -1.49650000      -2.84030000
H       -0.75040000      -2.10660000      -0.15670000
