17
Properties=species:S:1:pos:R:3 gdb_43825=T pbc="F F F"
O        0.07770000      -0.02930000       0.10350000
C        0.00600000       1.16590000      -0.01420000
C       -1.27690000       2.00080000      -0.16710000
C       -0.83330000       3.26880000      -0.89860000
C       -1.37770000       3.63680000      -2.25770000
C       -1.70760000       4.48280000      -1.05260000
C        0.64330000       3.39250000      -0.64740000
O        0.98550000       3.26850000       0.73210000
C        1.17270000       2.11930000      -0.11970000
H       -2.03790000       1.42330000      -0.69590000
H       -1.66250000       2.22610000       0.83380000
H       -0.69140000       4.04090000      -2.99530000
H       -2.15690000       3.00800000      -2.67470000
H       -2.71420000       4.43000000      -0.65150000
H       -1.24680000       5.46160000      -0.96940000
H        1.25720000       4.07590000      -1.22970000
H        2.18860000       1.75920000      -0.24410000
