15
Properties=species:S:1:pos:R:3 gdb_51981=T pbc="F F F"
N        0.53930000       0.18510000       1.91060000
C       -0.01060000      -0.18250000       0.83110000
C       -1.32510000      -0.94440000       0.90080000
O       -2.11740000      -0.74630000      -0.27670000
C       -3.17570000       0.09830000      -0.19680000
O       -3.83410000       0.38160000      -1.14780000
N        0.46280000      -0.01990000      -0.48200000
C        1.64860000       0.57100000      -0.84890000
O        2.47920000       1.00970000      -0.08690000
H        1.43990000       0.62920000       1.72720000
H       -1.12920000      -2.01910000       0.96110000
H       -1.85440000      -0.63480000       1.80540000
H       -3.34860000       0.46630000       0.83150000
H       -0.16410000      -0.30940000      -1.22030000
H        1.76440000       0.59870000      -1.94840000
