23
Properties=species:S:1:pos:R:3 gdb_106498=T pbc="F F F"
C        0.00610000       1.33800000       0.14410000
O        0.05360000      -0.05930000      -0.04430000
C        0.71620000      -0.50520000      -1.18120000
C        0.34020000      -0.09660000      -2.64280000
C        1.74070000      -0.70570000      -2.93460000
C        2.18650000      -0.12680000      -1.56240000
C        1.52610000      -2.19700000      -2.60370000
C        0.71170000      -2.04870000      -1.27650000
C        1.28610000      -2.77110000      -0.06060000
H        1.00920000       1.77550000       0.24410000
H       -0.51630000       1.84850000      -0.67730000
H       -0.54550000       1.51340000       1.07080000
H       -0.53780000      -0.56600000      -3.09680000
H        0.31730000       0.98470000      -2.79670000
H        2.28080000      -0.46180000      -3.84850000
H        2.34900000       0.95250000      -1.60340000
H        3.01140000      -0.61140000      -1.03380000
H        0.97160000      -2.72530000      -3.38490000
H        2.47280000      -2.72480000      -2.44790000
H       -0.32330000      -2.38020000      -1.41840000
H        2.32810000      -2.49030000       0.12610000
H        0.70850000      -2.53350000       0.83740000
H        1.25960000      -3.85610000      -0.20740000
