14
Properties=species:S:1:pos:R:3 gdb_57119=T pbc="F F F"
C       -0.12060000       1.43190000      -0.01850000
C        0.05970000      -0.05860000       0.05610000
O        0.26560000      -0.67070000       1.07580000
C        0.00190000      -0.88160000      -1.26900000
O        0.27810000      -2.22480000      -1.00860000
C       -1.30360000      -0.70220000      -1.91090000
C       -2.38240000      -0.56270000      -2.43670000
C       -3.60100000      -0.39850000      -3.03060000
N       -4.63730000      -0.25110000      -3.53410000
H        0.61090000       1.86620000      -0.70880000
H       -1.11310000       1.66930000      -0.41480000
H       -0.00190000       1.87030000       0.97240000
H        0.77060000      -0.46030000      -1.93890000
H        0.31170000      -2.28860000      -0.03750000
