16
Properties=species:S:1:pos:R:3 gdb_49599=T pbc="F F F"
O       -0.22740000       0.03480000       0.08760000
C       -0.05580000       1.21870000      -0.01370000
C        1.29160000       1.92220000       0.00130000
C        1.42350000       2.90360000       1.17440000
O        1.41080000       2.27170000       2.45730000
C        2.68160000       2.58280000       1.86430000
C        3.33460000       1.43000000       1.14200000
C        2.61390000       0.13030000       1.16070000
N        2.46260000       1.03270000       0.01000000
H       -0.91210000       1.92120000      -0.13860000
H        1.32780000       2.52060000      -0.92340000
H        0.97880000       3.89550000       1.12540000
H        3.27960000       3.31930000       2.39260000
H        4.40050000       1.49800000       0.94620000
H        3.14900000      -0.78560000       0.92840000
H        1.79650000       0.02950000       1.86280000
