17
Properties=species:S:1:pos:R:3 gdb_35650=T pbc="F F F"
C       -0.12770000      -1.24630000      -0.10030000
C       -0.06500000      -0.04690000      -0.04800000
C        0.01230000       1.40800000       0.02480000
C       -0.59380000       2.01260000       1.32970000
C        0.25590000       3.26700000       1.62560000
C        1.56240000       2.97910000       0.89810000
C        1.42520000       1.96340000       0.03430000
C        2.72890000       3.75160000       1.11170000
C        3.69700000       4.43510000       1.33070000
H       -0.18270000      -2.30550000      -0.14840000
H       -0.51690000       1.81640000      -0.85130000
H       -1.66020000       2.22490000       1.22860000
H       -0.47320000       1.28410000       2.13560000
H       -0.20110000       4.18090000       1.22400000
H        0.40500000       3.43550000       2.69610000
H        2.19980000       1.58890000      -0.62250000
H        4.55870000       5.02890000       1.51010000
