19
Properties=species:S:1:pos:R:3 gdb_70331=T pbc="F F F"
C       -0.02460000       1.51990000      -0.03770000
C        0.04070000       0.01050000      -0.02170000
C       -0.60710000      -0.77370000       1.10830000
C        0.89160000      -0.78110000       0.93910000
O        1.49400000      -1.87070000       0.27620000
C        1.19660000      -1.81600000      -1.09510000
C       -0.21550000      -2.12280000      -1.56380000
C        0.24540000      -0.69170000      -1.37020000
O        0.43610000       0.12130000      -2.48760000
H        0.80240000       1.94710000      -0.61060000
H       -0.96010000       1.87430000      -0.48670000
H        0.01870000       1.91650000       0.98100000
H       -0.99740000      -0.18780000       1.93520000
H       -1.16750000      -1.67870000       0.90840000
H        1.53690000      -0.34020000       1.69200000
H        2.03750000      -2.05860000      -1.73540000
H       -0.29110000      -2.44530000      -2.59770000
H       -0.92750000      -2.58190000      -0.88960000
H       -0.43040000       0.33940000      -2.84850000
