20
Properties=species:S:1:pos:R:3 gdb_7155=T pbc="F F F"
C       -0.11400000       1.57880000       0.00380000
C       -0.00720000       0.05190000       0.00320000
C        0.73290000      -0.49320000      -1.22120000
C        0.78400000      -2.03340000      -1.25380000
O       -0.52520000      -2.60740000      -1.23200000
C        1.56690000      -2.51960000      -2.39330000
C        2.17660000      -2.89690000      -3.36160000
C        2.92520000      -3.36840000      -4.51770000
H        0.87600000       2.04870000      -0.00630000
H       -0.65730000       1.93860000      -0.87740000
H       -0.64430000       1.93980000       0.89050000
H        0.51010000      -0.28070000       0.91330000
H       -1.00520000      -0.39690000       0.03910000
H        0.24910000      -0.14440000      -2.14390000
H        1.76110000      -0.11140000      -1.24930000
H        1.24780000      -2.38370000      -0.32220000
H       -0.89120000      -2.50960000      -2.11820000
H        2.47230000      -4.27170000      -4.94100000
H        2.96140000      -2.61190000      -5.30920000
H        3.95770000      -3.61390000      -4.24570000
