17
Properties=species:S:1:pos:R:3 gdb_26024=T pbc="F F F"
C        0.07350000       1.46520000      -0.21660000
C        0.14090000      -0.03730000      -0.40980000
O        1.12180000      -0.60620000      -0.81500000
C       -1.15490000      -0.79250000      -0.06550000
N       -1.01930000      -2.22490000      -0.03830000
C       -0.75100000      -3.06030000      -1.10320000
C       -0.71540000      -4.32380000      -0.57910000
N       -0.95030000      -4.29450000       0.77750000
C       -1.12380000      -3.02800000       1.06510000
H        0.95200000       1.93350000      -0.66100000
H       -0.83860000       1.88180000      -0.65750000
H        0.04600000       1.69740000       0.85470000
H       -1.52040000      -0.45530000       0.91010000
H       -1.91680000      -0.48980000      -0.79760000
H       -0.59500000      -2.67570000      -2.09660000
H       -0.53180000      -5.25200000      -1.09840000
H       -1.33890000      -2.61930000       2.04220000
