16
Properties=species:S:1:pos:R:3 gdb_115133=T pbc="F F F"
C       -0.09720000       1.46140000       0.04600000
O        0.00110000       0.06370000      -0.19590000
C       -1.18650000      -0.64240000       0.01600000
C       -1.07680000      -2.05290000      -0.59580000
N       -1.84680000      -2.88580000       0.31950000
C       -2.09390000      -2.36050000       1.55670000
O       -2.62410000      -2.89790000       2.49910000
C       -1.54330000      -0.91710000       1.48550000
O       -1.40440000      -0.18050000       2.42250000
H        0.87420000       1.88870000      -0.21090000
H       -0.86850000       1.91670000      -0.59400000
H       -0.32830000       1.67410000       1.09360000
H       -2.05180000      -0.11680000      -0.42780000
H       -1.48090000      -2.10200000      -1.61020000
H       -0.01880000      -2.33900000      -0.62940000
H       -2.06430000      -3.85080000       0.12250000
