18
Properties=species:S:1:pos:R:3 gdb_115693=T pbc="F F F"
C        0.21530000       1.57750000      -0.15980000
O       -0.31820000       0.31670000      -0.51970000
C        0.57860000      -0.48280000      -1.24340000
C        1.65840000      -1.27850000      -0.47640000
O        1.22570000      -2.50490000      -1.09890000
C        0.05110000      -1.88370000      -1.64190000
C       -1.24350000      -2.41440000      -1.00040000
N       -2.32480000      -1.58630000      -1.16290000
O       -1.29840000      -3.51690000      -0.50480000
H        1.08620000       1.47360000       0.50200000
H        0.51610000       2.15340000      -1.04740000
H       -0.56890000       2.12050000       0.37130000
H        0.98490000       0.07630000      -2.09750000
H        2.70700000      -1.05280000      -0.69600000
H        1.49600000      -1.28590000       0.60980000
H       -0.03000000      -2.05240000      -2.72360000
H       -2.14230000      -0.59250000      -1.16830000
H       -3.16160000      -1.88450000      -0.68190000
