21
Properties=species:S:1:pos:R:3 gdb_106492=T pbc="F F F"
C       -0.01070000       1.56760000      -0.05500000
C        0.06940000       0.05420000       0.04970000
O        0.92000000      -0.50200000      -0.99030000
C        1.84050000      -1.29580000      -0.23060000
C        2.26570000      -0.35620000       0.92240000
C        0.75790000      -0.54490000       1.29970000
C        0.20100000      -0.20340000       2.66100000
O       -1.18610000      -0.49770000       2.77680000
C        0.93670000      -2.02220000       0.79450000
H        0.95420000       2.04680000       0.13300000
H       -0.33520000       1.85030000      -1.06080000
H       -0.74280000       1.95750000       0.65970000
H       -0.93900000      -0.36320000      -0.06090000
H        2.53640000      -1.79950000      -0.89970000
H        2.93570000      -0.82830000       1.64400000
H        2.62430000       0.63940000       0.65490000
H        0.78510000      -0.71460000       3.44280000
H        0.28950000       0.87320000       2.84620000
H       -1.29430000      -1.44610000       2.65090000
H        0.06390000      -2.54810000       0.39750000
H        1.48790000      -2.64790000       1.50000000
