15
Properties=species:S:1:pos:R:3 gdb_24906=T pbc="F F F"
N       -0.02900000       1.25120000      -0.06580000
C        0.00630000      -0.01210000       0.02500000
C       -1.25520000      -0.90970000       0.01970000
C       -0.66120000      -2.28910000      -0.04880000
C        0.68180000      -2.15580000      -0.00080000
N        1.14590000      -0.85260000       0.14320000
O        1.34780000      -3.31280000       0.02850000
C        0.34840000      -4.28090000      -0.01550000
C       -0.88640000      -3.70460000      -0.05060000
H        0.90490000       1.66400000      -0.04150000
H       -1.83240000      -0.72410000       0.93310000
H       -1.89580000      -0.62780000      -0.82150000
H        2.03530000      -0.54740000      -0.22300000
H        0.70340000      -5.29600000      -0.03930000
H       -1.82350000      -4.23840000      -0.08710000
