20
Properties=species:S:1:pos:R:3 gdb_116542=T pbc="F F F"
C        0.39610000       0.84090000       0.72280000
C        0.09290000      -0.36120000      -0.17390000
N       -1.33660000      -0.58620000      -0.22050000
C       -1.95330000      -1.21360000      -1.14920000
N       -3.31010000      -1.34630000      -1.11250000
C       -4.10840000      -0.64210000      -0.13630000
C       -1.41960000      -1.91460000      -2.41160000
N       -0.13180000      -2.33800000      -2.38590000
O       -2.14790000      -2.08740000      -3.37480000
H        1.47490000       1.01370000       0.79580000
H       -0.07400000       1.74230000       0.31870000
H       -0.00330000       0.67630000       1.72730000
H        0.53570000      -0.18730000      -1.16640000
H        0.60690000      -1.24090000       0.25540000
H       -3.71950000      -1.63290000      -1.98890000
H       -5.15870000      -0.90210000      -0.28350000
H       -3.80650000      -0.92930000       0.87510000
H       -3.98920000       0.44720000      -0.21300000
H        0.42570000      -2.30970000      -1.55160000
H        0.19460000      -2.87170000      -3.17570000
