22
Properties=species:S:1:pos:R:3 gdb_5872=T pbc="F F F"
C       -0.20310000       1.53560000       0.05590000
C        0.00100000       0.00970000       0.06250000
C        0.77170000      -0.40500000       1.32910000
C       -1.37800000      -0.67720000       0.06670000
C        0.74920000      -0.45440000      -1.21350000
C        2.17220000       0.10000000      -1.41580000
C        2.72280000      -0.30170000      -2.76450000
O        3.73820000      -0.92320000      -2.94350000
H        0.74520000       2.07870000       0.11720000
H       -0.72200000       1.86350000      -0.85200000
H       -0.80890000       1.84540000       0.91410000
H        0.20610000      -0.13980000       2.22880000
H        0.94440000      -1.48670000       1.35140000
H        1.74450000       0.09180000       1.39640000
H       -1.96000000      -0.40430000      -0.82070000
H       -1.27770000      -1.76810000       0.07870000
H       -1.95810000      -0.38560000       0.94870000
H        0.80170000      -1.55070000      -1.20620000
H        0.13930000      -0.18430000      -2.08670000
H        2.14950000       1.19830000      -1.39100000
H        2.86580000      -0.24680000      -0.64610000
H        2.09350000       0.02360000      -3.62780000
