16
Properties=species:S:1:pos:R:3 gdb_39007=T pbc="F F F"
C       -0.01140000       1.48160000       0.01220000
C        1.31990000       0.78560000       0.00790000
C        1.87400000       0.41180000       1.40320000
N        0.95820000      -0.57160000       2.04280000
C        0.04450000      -0.77650000       1.18100000
N       -0.92960000      -1.75070000       1.01580000
C       -1.20350000      -1.75560000      -0.36490000
N       -0.68250000      -0.80980000      -1.06290000
C        0.02830000      -0.02390000      -0.09330000
H       -0.38250000       1.93170000       0.92910000
H       -0.29740000       1.98980000      -0.90280000
H        1.99540000       0.93400000      -0.82530000
H        2.86470000      -0.05250000       1.33170000
H        1.98430000       1.30130000       2.03450000
H       -1.00060000      -2.57140000       1.59640000
H       -1.84440000      -2.52960000      -0.77180000
