17
Properties=species:S:1:pos:R:3 gdb_105926=T pbc="F F F"
C       -0.01060000       1.29100000       0.23880000
O       -0.11050000      -0.04580000      -0.23810000
C       -1.36650000      -0.57190000      -0.13050000
C       -2.01760000      -1.02440000       1.19120000
C       -1.75300000      -2.00900000       0.05920000
C       -3.16280000      -1.62900000      -0.48870000
C       -3.49570000      -0.79380000       0.79260000
O       -3.56580000       0.44650000       0.04450000
C       -2.67470000      -0.19820000      -0.89330000
H        1.02980000       1.59470000       0.10720000
H       -0.65940000       1.97090000      -0.32800000
H       -0.28160000       1.35490000       1.30070000
H       -1.51560000      -0.92790000       2.14400000
H       -1.17160000      -2.91840000       0.03630000
H       -3.85750000      -2.24060000      -1.05800000
H       -4.31540000      -0.93600000       1.49540000
H       -2.65310000       0.24510000      -1.88790000
