19
Properties=species:S:1:pos:R:3 gdb_105315=T pbc="F F F"
C        0.02930000       1.54310000      -0.12330000
C        0.02710000       0.03890000       0.16090000
C       -1.36370000      -0.59430000       0.04850000
N       -1.98650000      -0.52520000      -1.33350000
C       -2.27140000      -1.97980000      -1.27190000
C       -0.96640000      -2.70270000      -1.27580000
C       -1.49680000      -2.13640000       0.02300000
C       -2.27440000      -0.03930000       1.05650000
N       -2.99670000       0.40970000       1.84070000
H        1.04530000       1.94400000      -0.06970000
H       -0.36230000       1.74190000      -1.12540000
H       -0.58530000       2.08780000       0.60020000
H        0.67810000      -0.47630000      -0.55160000
H        0.41960000      -0.16550000       1.16430000
H       -2.83700000       0.02840000      -1.31530000
H       -3.21660000      -2.39640000      -1.59530000
H       -1.02460000      -3.78520000      -1.32790000
H       -0.11440000      -2.26270000      -1.78470000
H       -1.68040000      -2.74270000       0.89920000
