16
Properties=species:S:1:pos:R:3 gdb_9860=T pbc="F F F"
C       -0.04140000       1.50960000       0.00520000
C        0.00660000      -0.01250000      -0.00210000
C        1.35410000      -0.69200000      -0.22420000
C        0.73120000      -0.71810000       1.13980000
C       -1.15340000      -0.65840000      -0.54410000
C       -2.14670000      -1.17620000      -1.00760000
C       -3.25510000      -1.76950000      -1.52540000
C       -4.24060000      -2.29490000      -1.98650000
H        0.87930000       1.91680000       0.43380000
H       -0.14920000       1.90230000      -1.01040000
H       -0.88530000       1.87140000       0.60030000
H        1.36410000      -1.60880000      -0.80090000
H        2.20270000      -0.03810000      -0.39430000
H        1.14900000      -0.08240000       1.91300000
H        0.31530000      -1.65290000       1.49560000
H       -5.10570000      -2.75860000      -2.39060000
