14
Properties=species:S:1:pos:R:3 gdb_11485=T pbc="F F F"
O       -0.62660000       0.13090000      -1.04520000
C       -0.00780000       1.02120000      -0.52340000
C        1.39260000       1.45560000      -0.90840000
C        2.42040000       0.98420000       0.11100000
C        3.62960000       1.80240000       0.37800000
N        2.58780000       1.65900000       1.40550000
C       -0.60280000       1.78410000       0.60010000
N       -1.05290000       2.41490000       1.45880000
H        1.60530000       1.02510000      -1.89140000
H        1.41980000       2.54950000      -0.98330000
H        2.50230000      -0.09860000       0.17830000
H        4.57290000       1.31620000       0.60850000
H        3.72440000       2.74950000      -0.14780000
H        2.01470000       2.49770000       1.45910000
