16
Properties=species:S:1:pos:R:3 gdb_47116=T pbc="F F F"
N       -0.25780000       1.28640000      -0.22870000
C       -0.04650000       0.07970000       0.09030000
C       -1.13200000      -0.95940000      -0.07900000
C       -1.04310000      -2.07870000       0.93930000
C        0.16380000      -2.41990000       1.40600000
C        1.38680000      -1.68870000       0.95060000
O        1.15420000      -0.32220000       0.59080000
C       -2.24180000      -2.73670000       1.32000000
C       -3.28660000      -3.26170000       1.61010000
H        0.58310000       1.84450000      -0.06690000
H       -2.09290000      -0.44690000      -0.03830000
H       -1.05190000      -1.38880000      -1.08820000
H        0.29320000      -3.23770000       2.10580000
H        2.13870000      -1.65430000       1.74500000
H        1.85080000      -2.20440000       0.09430000
H       -4.19930000      -3.73490000       1.87600000
