14
Properties=species:S:1:pos:R:3 gdb_11737=T pbc="F F F"
O        0.10870000       1.37540000      -0.21800000
C        0.08040000      -0.01050000       0.07620000
C       -1.32000000      -0.51560000       0.22570000
C       -2.36590000      -0.19220000       1.30770000
C       -2.91540000      -1.63100000       1.06220000
O       -3.70030000      -2.32730000       1.63000000
C       -1.88990000      -1.86500000      -0.04810000
O       -2.07690000      -0.76410000      -0.96360000
H       -0.33100000       1.49910000      -1.06650000
H        0.59430000      -0.60650000      -0.69180000
H        0.62180000      -0.13220000       1.01980000
H       -1.97120000      -0.10270000       2.32410000
H       -3.02590000       0.64770000       1.08640000
H       -1.44890000      -2.77520000      -0.43800000
