21
Properties=species:S:1:pos:R:3 gdb_113889=T pbc="F F F"
C       -0.01580000       1.33650000      -0.06480000
C        0.37010000      -0.14670000      -0.08390000
C        0.81050000      -0.65140000       1.27330000
C       -0.19540000      -1.15740000       2.28150000
C        0.77470000      -2.11470000       1.63480000
N        0.24670000      -3.06810000       0.70150000
C        1.06530000      -3.56890000      -0.29580000
N        0.52360000      -4.66460000      -0.96280000
O        2.16150000      -3.11400000      -0.55600000
H        0.82610000       1.96040000       0.25520000
H       -0.32270000       1.67850000      -1.05830000
H       -0.84460000       1.52210000       0.62690000
H       -0.47720000      -0.74630000      -0.43390000
H        1.18150000      -0.31470000      -0.80160000
H        1.66280000      -0.11870000       1.68810000
H       -0.06890000      -0.92820000       3.33360000
H       -1.22950000      -1.21530000       1.95520000
H        1.60020000      -2.47620000       2.24450000
H       -0.45570000      -3.69650000       1.06320000
H       -0.48090000      -4.70190000      -1.05530000
H        1.01690000      -4.86990000      -1.81880000
