20
Properties=species:S:1:pos:R:3 gdb_69938=T pbc="F F F"
C       -0.12010000       1.52150000      -0.03250000
C        0.08710000       0.02980000      -0.00720000
N       -0.70230000      -0.81220000       0.94630000
C        0.76530000      -0.72440000       1.10600000
C        1.56060000      -1.84620000       0.46840000
C        1.15120000      -3.36150000       0.34870000
C        1.31830000      -3.25660000      -1.21490000
C        1.16620000      -1.77030000      -0.98860000
C        0.33090000      -0.76730000      -1.26250000
H        0.71580000       2.02520000      -0.52960000
H       -1.03540000       1.78380000      -0.57660000
H       -0.20630000       1.92960000       0.98020000
H       -1.12610000      -0.20000000       1.64270000
H        1.15510000      -0.19620000       1.97030000
H        2.63460000      -1.74760000       0.66230000
H        1.78660000      -4.08630000       0.86240000
H        0.10580000      -3.50090000       0.62700000
H        2.32630000      -3.55470000      -1.52270000
H        0.58440000      -3.75620000      -1.85060000
H       -0.26540000      -0.63950000      -2.15910000
