17
Properties=species:S:1:pos:R:3 gdb_70648=T pbc="F F F"
C       -0.34330000       1.26500000      -0.10180000
C        0.09550000      -0.15780000       0.08470000
O       -0.51670000      -0.91730000       1.13170000
C        0.90000000      -0.70610000       1.17970000
C        1.67890000      -1.87940000       0.63330000
O        1.07020000      -2.19430000      -0.61540000
C        0.41210000      -1.03620000      -1.13340000
C       -0.75870000      -1.42750000      -1.90880000
C       -1.73090000      -1.69830000      -2.55960000
H        0.39960000       1.83230000      -0.67200000
H       -1.29000000       1.29980000      -0.65060000
H       -0.48830000       1.74770000       0.86710000
H        1.27900000      -0.11130000       2.00670000
H        2.73760000      -1.59810000       0.51110000
H        1.62380000      -2.77340000       1.26250000
H        1.09900000      -0.46700000      -1.78440000
H       -2.59100000      -1.95440000      -3.12760000
