25
Properties=species:S:1:pos:R:3 gdb_120636=T pbc="F F F"
C        0.20720000       1.40030000       0.44880000
C       -0.06460000      -0.10100000       0.33120000
C       -1.36470000      -0.41830000      -0.42300000
C       -1.60330000      -1.90520000      -0.53320000
O       -1.99590000      -2.60260000       0.65960000
C       -2.90540000      -2.59880000      -0.45900000
C       -4.20100000      -1.84470000      -0.24370000
C       -3.03880000      -3.95510000      -1.13910000
C       -3.76390000      -4.99900000      -0.28000000
H        1.13700000       1.59540000       0.99210000
H        0.29420000       1.86750000      -0.53880000
H       -0.60290000       1.90900000       0.98330000
H        0.77730000      -0.58930000      -0.17720000
H       -0.12250000      -0.55100000       1.32910000
H       -2.20390000       0.06940000       0.08250000
H       -1.31570000       0.00330000      -1.43680000
H       -0.81940000      -2.42590000      -1.09170000
H       -4.04170000      -0.91780000       0.30810000
H       -4.67010000      -1.60390000      -1.20420000
H       -4.90880000      -2.45180000       0.32890000
H       -3.56110000      -3.82470000      -2.09590000
H       -2.03470000      -4.32330000      -1.37540000
H       -3.75600000      -5.97650000      -0.77130000
H       -3.26860000      -5.10120000       0.69000000
H       -4.80960000      -4.73080000      -0.10050000
