17
Properties=species:S:1:pos:R:3 gdb_30167=T pbc="F F F"
C        0.16930000       1.47270000       0.07500000
C       -0.01640000      -0.04060000      -0.03500000
C        0.73410000      -0.62560000      -1.30570000
C        1.90890000      -1.21630000      -0.61730000
C        1.76910000      -1.26130000       0.71870000
N        0.54700000      -0.75120000       1.17000000
N        2.83490000      -1.91250000       1.30140000
C        3.56120000      -2.23620000       0.26890000
O        3.06540000      -1.86840000      -0.94550000
H        1.23360000       1.72870000       0.11650000
H       -0.27250000       1.98180000      -0.78790000
H       -0.31570000       1.86390000       0.97600000
H       -1.08320000      -0.27130000      -0.10050000
H        0.11650000      -1.37300000      -1.82020000
H        0.95680000       0.16750000      -2.02870000
H        0.61340000      -0.14240000       1.97870000
H        4.50940000      -2.74980000       0.26170000
