20
Properties=species:S:1:pos:R:3 gdb_120081=T pbc="F F F"
O        0.01490000       1.47440000      -0.05880000
C        0.04470000       0.06300000       0.08680000
C       -1.36000000      -0.46440000      -0.18560000
C       -1.44850000      -1.97870000      -0.08510000
C       -1.53080000      -2.66490000       1.28980000
C       -3.04650000      -2.35440000       1.49680000
C       -3.29700000      -3.83730000       1.73740000
N       -2.21340000      -3.91370000       0.66570000
C       -2.82310000      -2.65790000      -0.01770000
H        0.89980000       1.81310000       0.10460000
H        0.75590000      -0.39710000      -0.61870000
H        0.36230000      -0.22650000       1.10200000
H       -2.05340000       0.01180000       0.51740000
H       -1.65970000      -0.14010000      -1.18970000
H       -0.75710000      -2.48080000      -0.77310000
H       -0.76950000      -2.79060000       2.06300000
H       -3.50530000      -1.47210000       1.95400000
H       -2.99090000      -4.26600000       2.69780000
H       -4.25570000      -4.26000000       1.41810000
H       -3.58560000      -2.77050000      -0.79180000
