17
Properties=species:S:1:pos:R:3 gdb_127723=T pbc="F F F"
C       -0.11380000       1.41390000       0.00190000
N       -0.06060000      -0.04070000       0.05190000
N       -0.21340000      -0.66120000      -1.12260000
N       -0.18500000      -1.93130000      -1.20050000
C        0.00860000      -2.68810000      -0.04640000
C        0.02030000      -4.16710000      -0.28480000
C        0.16800000      -2.11000000       1.16530000
C        0.14130000      -0.67210000       1.29560000
N        0.26890000       0.07440000       2.33110000
H        0.82000000       1.83020000       0.38700000
H       -0.27230000       1.69710000      -1.03730000
H       -0.92550000       1.77530000       0.63780000
H        0.81320000      -4.42850000      -0.99310000
H        0.17410000      -4.72250000       0.64260000
H       -0.92490000      -4.48350000      -0.73800000
H        0.31800000      -2.70120000       2.06230000
H        0.40860000      -0.50170000       3.15970000
