18
Properties=species:S:1:pos:R:3 gdb_69338=T pbc="F F F"
C        0.04100000       1.56370000       0.02370000
C       -0.04780000       0.06940000       0.08240000
C       -1.33900000      -0.76290000      -0.00780000
C       -0.70070000      -1.80640000       0.99270000
O       -1.28940000      -1.77240000       2.28020000
C       -0.55120000      -3.17120000       0.49600000
C       -0.45160000      -4.29230000       0.07020000
C        0.57180000      -0.93300000       1.01600000
N        1.10200000      -0.73550000      -0.32260000
H        1.05520000       1.89270000       0.26410000
H       -0.20210000       1.93010000      -0.98090000
H       -0.65700000       2.02710000       0.72850000
H       -2.19770000      -0.29090000       0.47530000
H       -1.61940000      -1.11880000      -1.00420000
H       -2.06570000      -2.34300000       2.26690000
H       -0.35150000      -5.28480000      -0.29510000
H        1.21780000      -0.82730000       1.88010000
H        0.87580000      -1.50290000      -0.95410000
