21
Properties=species:S:1:pos:R:3 gdb_63551=T pbc="F F F"
C       -0.10810000       1.53100000       0.05370000
C        0.00010000       0.02270000       0.06090000
O       -1.18490000      -0.62610000      -0.33310000
C        1.30600000      -0.65300000      -0.28530000
C        0.76370000      -0.71070000       1.13260000
C        1.47830000       0.02790000       2.27970000
C        1.44600000      -0.97210000       3.40890000
C        0.77250000      -2.07570000       3.09280000
C        0.22140000      -2.04010000       1.69060000
H        0.82380000       2.00650000       0.37030000
H       -0.33570000       1.89300000      -0.95670000
H       -0.91220000       1.86560000       0.71770000
H       -1.31140000      -0.46380000      -1.27440000
H        1.25240000      -1.56340000      -0.87470000
H        2.17660000      -0.03210000      -0.47890000
H        2.50370000       0.31630000       2.01150000
H        0.96590000       0.95810000       2.56330000
H        1.91450000      -0.77500000       4.36700000
H        0.60890000      -2.91850000       3.75580000
H       -0.87490000      -2.06630000       1.67960000
H        0.54890000      -2.90260000       1.09620000
