16
Properties=species:S:1:pos:R:3 gdb_52500=T pbc="F F F"
C       -0.01630000       1.49220000       0.01020000
C        0.00780000       0.04100000       0.00220000
C        0.02950000      -1.16900000      -0.00450000
C        0.05240000      -2.52860000      -0.01200000
C        0.07860000      -3.73900000      -0.01880000
C        0.07800000      -5.19210000      -0.02660000
C       -1.36450000      -5.76670000      -0.01580000
C       -1.37000000      -7.22740000      -0.02360000
N       -1.35200000      -8.38270000      -0.03000000
H        0.99930000       1.90370000       0.00290000
H       -0.54140000       1.88450000      -0.86790000
H       -0.52480000       1.87490000       0.90230000
H        0.60560000      -5.56800000      -0.91130000
H        0.62240000      -5.57740000       0.84370000
H       -1.89830000      -5.41100000       0.87080000
H       -1.91520000      -5.40160000      -0.88830000
