21
Properties=species:S:1:pos:R:3 gdb_121191=T pbc="F F F"
C       -0.29960000       1.32330000      -0.15090000
O       -0.00840000      -0.04960000      -0.05710000
C        0.56720000      -0.57130000      -1.23670000
C        0.82650000      -2.05090000      -1.01290000
C       -0.46440000      -2.91380000      -0.95660000
C       -0.23540000      -3.33190000      -2.43260000
C        1.24400000      -2.83820000      -2.30910000
C        1.84660000      -2.13060000      -3.42090000
C        2.33210000      -1.53590000      -4.34760000
H        0.60620000       1.92270000      -0.33540000
H       -1.01810000       1.53570000      -0.95900000
H       -0.73860000       1.63190000       0.80110000
H       -0.10890000      -0.41580000      -2.09520000
H        1.50850000      -0.05020000      -1.47630000
H        1.51180000      -2.16160000      -0.16880000
H       -0.36740000      -3.75600000      -0.26680000
H       -1.38530000      -2.37730000      -0.72160000
H       -0.37480000      -4.38230000      -2.69570000
H       -0.80100000      -2.71790000      -3.13660000
H        1.88720000      -3.67650000      -2.02120000
H        2.76530000      -1.01620000      -5.16590000
