14
Properties=species:S:1:pos:R:3 gdb_123937=T pbc="F F F"
C       -0.00710000       1.45740000      -0.01340000
C        1.46070000       1.92950000       0.03380000
O        2.12610000       1.49850000       1.22700000
C        1.93290000       0.16330000       1.37870000
C        0.90650000      -0.55720000       0.81780000
N       -0.12160000      -0.00170000       0.11440000
O        1.03650000      -1.82770000       1.12010000
N        2.29190000      -1.87820000       1.98150000
N        2.71690000      -0.69970000       2.05670000
H       -0.56240000       1.93560000       0.80160000
H       -0.45760000       1.77390000      -0.95740000
H        2.00210000       1.54660000      -0.84190000
H        1.50520000       3.01980000       0.03630000
H       -0.50870000      -0.52890000      -0.65280000
