22
Properties=species:S:1:pos:R:3 gdb_103861=T pbc="F F F"
C        0.06780000       1.50300000      -0.29870000
C       -0.01610000       0.07230000       0.24580000
C       -1.40690000      -0.51930000       0.14340000
O       -2.38270000       0.12140000       0.93080000
C       -1.88220000      -1.13600000      -1.15760000
C       -1.61400000      -2.00360000       0.05580000
N       -0.47150000      -2.87190000       0.02050000
C       -0.27270000      -3.73600000       1.18130000
C       -0.74530000      -4.30010000      -0.11340000
H        1.08310000       1.89980000      -0.20680000
H       -0.21340000       1.54340000      -1.35690000
H       -0.59480000       2.17950000       0.25310000
H        0.68040000      -0.58150000      -0.28590000
H        0.28330000       0.06340000       1.30130000
H       -2.59890000       0.95870000       0.50660000
H       -2.91630000      -0.98220000      -1.44500000
H       -1.17270000      -1.20720000      -1.97490000
H       -2.49730000      -2.36750000       0.58740000
H        0.75720000      -3.87020000       1.49940000
H       -0.99600000      -3.67190000       1.99200000
H       -1.78580000      -4.61460000      -0.17030000
H       -0.06610000      -4.85310000      -0.75610000
