20
Properties=species:S:1:pos:R:3 gdb_41227=T pbc="F F F"
C       -0.00670000       1.55130000       0.30990000
C        1.51100000       1.47050000      -0.10830000
C        1.13090000       0.23190000      -0.95500000
C        1.58280000      -1.20850000      -1.22210000
C        0.17720000      -1.67810000      -1.67790000
C       -0.89390000      -0.84890000      -1.00040000
C       -0.09710000       0.03230000      -0.05570000
N       -0.50660000      -0.57720000      -2.40330000
C        0.44750000       0.54740000      -2.30790000
H       -0.21660000       1.80570000       1.35050000
H       -0.58730000       2.21350000      -0.33380000
H        1.94340000       2.32590000      -0.63350000
H        2.14540000       1.22640000       0.74810000
H        2.32800000      -1.33590000      -2.01420000
H        1.92520000      -1.73120000      -0.32420000
H        0.00030000      -2.68500000      -2.03740000
H       -1.89630000      -1.22280000      -0.82860000
H        0.16860000      -0.54160000       0.84000000
H       -0.09020000       1.49780000      -2.33740000
H        1.15030000       0.51920000      -3.14740000
