20
Properties=species:S:1:pos:R:3 gdb_89548=T pbc="F F F"
C       -1.01650000       0.99340000      -0.18170000
C        0.11090000      -0.00490000       0.02640000
C        1.39990000       0.12710000      -0.83660000
C        2.22380000      -0.24820000       0.41810000
C        1.00470000       0.12510000       1.29450000
C        2.85330000      -1.66910000       0.53350000
C        4.19290000      -0.93270000       0.78250000
O        5.33290000      -1.24610000       0.99360000
N        3.56140000       0.28320000       0.66670000
H       -0.64650000       2.02290000      -0.11220000
H       -1.47950000       0.87180000      -1.16730000
H       -1.80210000       0.87020000       0.57200000
H       -0.27690000      -1.02690000      -0.04640000
H        1.50610000      -0.50220000      -1.72420000
H        1.57450000       1.17030000      -1.12320000
H        1.06460000       1.16780000       1.62650000
H        0.78570000      -0.50580000       2.16010000
H        2.50980000      -2.26980000       1.37800000
H        2.83560000      -2.26820000      -0.37900000
H        3.91180000       1.22820000       0.73240000
