14
Properties=species:S:1:pos:R:3 gdb_10051=T pbc="F F F"
O        0.10180000       1.40200000      -0.01920000
C        0.04250000       0.00080000      -0.04350000
C       -1.41520000      -0.52920000       0.00330000
C       -1.44200000      -2.07630000      -0.07500000
C       -2.78960000      -2.62120000      -0.21210000
N       -3.85780000      -3.04300000      -0.33320000
C       -2.06080000      -0.03490000       1.22150000
N       -2.50390000       0.38920000       2.20120000
H       -0.18260000       1.70690000       0.85040000
H        0.49060000      -0.31500000      -0.99090000
H        0.61880000      -0.45890000       0.77370000
H       -1.95250000      -0.11340000      -0.85560000
H       -0.84790000      -2.39240000      -0.93970000
H       -0.97100000      -2.50590000       0.81540000
