12
Properties=species:S:1:pos:R:3 gdb_8790=T pbc="F F F"
O        0.01390000       1.41140000       0.00950000
C       -0.01170000       0.01000000       0.00240000
C       -1.45480000      -0.45640000       0.01350000
O       -2.41210000       0.27040000       0.02630000
C       -1.62350000      -1.99320000       0.00700000
O       -0.65380000      -2.72170000      -0.00600000
C       -2.98430000      -2.47480000       0.01720000
C       -4.11340000      -2.89090000       0.02570000
H        0.93370000       1.69120000       0.00190000
H        0.47250000      -0.43370000      -0.88340000
H        0.48900000      -0.44290000       0.87430000
H       -5.11180000      -3.25710000       0.03360000
