18
Properties=species:S:1:pos:R:3 gdb_83132=T pbc="F F F"
C       -0.13310000       1.56490000       0.02070000
C        0.03910000       0.06280000      -0.04620000
C        0.70240000      -0.68800000      -1.18970000
C        1.64980000       0.09640000      -2.09720000
N        2.68370000       0.57820000      -1.18560000
C        2.62380000       0.04740000       0.06910000
O        3.46930000       0.09780000       0.94230000
C        1.32220000      -0.70010000       0.19060000
O        1.36480000      -1.78730000       1.04660000
H        0.73850000       2.10010000      -0.36430000
H       -1.00600000       1.88180000      -0.56120000
H       -0.28910000       1.88800000       1.05510000
H       -0.80130000      -0.49650000       0.36040000
H        0.20590000      -1.55830000      -1.60040000
H        2.07930000      -0.55400000      -2.86960000
H        1.14910000       0.93190000      -2.60190000
H        3.50060000       1.08130000      -1.49330000
H        2.12420000      -1.61820000       1.62480000
