16
Properties=species:S:1:pos:R:3 gdb_127572=T pbc="F F F"
C       -0.03410000       1.42390000      -0.01620000
N       -0.00520000      -0.01970000       0.01210000
N        0.03290000      -0.73290000      -1.15340000
C        0.04310000      -1.99730000      -0.77160000
C        0.03100000      -2.13680000       0.64230000
C        0.04910000      -3.29070000       1.44950000
C        0.06920000      -4.25840000       2.16990000
C        0.00410000      -0.81820000       1.10270000
N       -0.09030000      -0.32520000       2.39620000
H        0.95900000       1.85600000       0.15860000
H       -0.38030000       1.72820000      -1.00350000
H       -0.72480000       1.79400000       0.74680000
H        0.06240000      -2.78740000      -1.50740000
H        0.08000000      -5.12070000       2.78860000
H       -0.01610000      -1.07270000       3.07540000
H        0.56830000       0.41250000       2.61440000
