17
Properties=species:S:1:pos:R:3 gdb_114166=T pbc="F F F"
O       -0.07540000       1.36870000      -0.29960000
C        0.03260000       0.03680000       0.16550000
C       -1.31450000      -0.65840000       0.09340000
O       -1.84890000      -0.63770000      -1.26930000
C       -2.11610000      -2.05060000      -1.20420000
C       -0.82850000      -2.81380000      -1.06800000
C       -1.43630000      -2.17760000       0.15990000
C       -3.33790000      -2.55260000      -1.72460000
C       -4.36950000      -2.97770000      -2.17430000
H       -0.47030000       1.31740000      -1.17850000
H        0.78440000      -0.53090000      -0.40240000
H        0.36850000       0.08690000       1.20730000
H       -2.03020000      -0.15830000       0.75660000
H       -0.92850000      -3.89330000      -1.10550000
H        0.06490000      -2.41370000      -1.53670000
H       -1.74950000      -2.74890000       1.02230000
H       -5.28200000      -3.35020000      -2.56980000
