23
Properties=species:S:1:pos:R:3 gdb_103065=T pbc="F F F"
C        0.00640000       1.51970000      -0.05420000
C        0.00310000       0.00260000       0.04050000
C       -1.21060000      -0.61690000      -0.63710000
C        1.33180000      -0.72570000      -0.05510000
O        2.53700000      -0.02830000      -0.19300000
C        0.62680000      -0.64900000       1.28380000
C        1.21470000       0.23020000       2.37860000
C        0.05170000      -1.94740000       1.83330000
O        1.02060000      -2.71060000       2.54250000
H        0.94700000       1.95700000       0.28110000
H       -0.15730000       1.83370000      -1.09240000
H       -0.80290000       1.95300000       0.54450000
H       -1.31570000      -0.22030000      -1.65400000
H       -1.14730000      -1.70410000      -0.71910000
H       -2.13490000      -0.37810000      -0.09740000
H        1.31890000      -1.69300000      -0.56440000
H        2.57750000       0.32790000      -1.08680000
H        1.95770000       0.92780000       1.99270000
H        0.43080000       0.79980000       2.89060000
H        1.70500000      -0.40660000       3.11970000
H       -0.73760000      -1.73230000       2.56310000
H       -0.39910000      -2.55130000       1.03540000
H        1.76590000      -2.84830000       1.94750000
