23
Properties=species:S:1:pos:R:3 gdb_63698=T pbc="F F F"
C        0.85290000       1.40330000      -1.03700000
C        0.31070000       0.01310000      -0.73880000
C       -1.00510000      -0.23840000      -1.47060000
O        1.28300000      -1.01890000      -1.10540000
C        1.24070000      -1.61130000       0.21360000
C        0.97420000      -3.09430000       0.17980000
C        2.37540000      -1.06220000       1.12540000
C        1.39370000       0.01500000       1.68170000
C        0.28240000      -0.49260000       0.72980000
H        1.82750000       1.56500000      -0.57150000
H        0.97600000       1.52810000      -2.11790000
H        0.16340000       2.17720000      -0.68250000
H       -0.85450000      -0.16970000      -2.55270000
H       -1.39430000      -1.23520000      -1.24430000
H       -1.76070000       0.49950000      -1.17830000
H        1.80410000      -3.61290000      -0.31440000
H        0.87840000      -3.49810000       1.19310000
H        0.05870000      -3.31910000      -0.37520000
H        2.73610000      -1.76850000       1.87840000
H        3.22750000      -0.68660000       0.55500000
H        1.13860000      -0.15180000       2.73100000
H        1.69310000       1.05990000       1.57400000
H       -0.70630000      -0.67480000       1.15310000
