17
Properties=species:S:1:pos:R:3 gdb_130403=T pbc="F F F"
N        0.08530000       1.34420000      -0.03690000
C        0.05070000      -0.04980000      -0.04880000
N       -1.04920000      -0.73540000      -0.34640000
N       -0.66480000      -2.03650000      -0.30130000
C        0.65550000      -2.19150000       0.00140000
C        1.38390000      -3.49210000       0.09930000
N        2.46920000      -3.35050000       1.09070000
H        2.07790000      -3.32460000       2.02780000
H        3.09480000      -4.14840000       1.04880000
H        2.86990000      -1.34490000       0.77830000
C        1.14950000      -0.91470000       0.18040000
O        2.40720000      -0.52460000       0.52710000
H        0.76230000       1.70390000       0.62300000
H       -0.82900000       1.74540000       0.12540000
H       -1.33070000      -2.74640000      -0.54610000
H        0.68110000      -4.31060000       0.32650000
H        1.85870000      -3.74770000      -0.85800000
