19
Properties=species:S:1:pos:R:3 gdb_85266=T pbc="F F F"
C       -0.32870000       1.20550000       0.89170000
N        0.02500000       0.14030000      -0.04410000
C       -1.12410000      -0.70280000      -0.39840000
C       -1.09110000      -1.90580000       0.55140000
O       -1.93480000      -2.75500000       0.71200000
C        0.25370000      -1.87110000       1.22020000
C        0.31770000      -2.21640000       2.67320000
N        0.84840000      -3.13240000       1.66780000
C        1.04170000      -0.78590000       0.50150000
H        0.56150000       1.80170000       1.11240000
H       -1.06460000       1.86720000       0.42510000
H       -0.74910000       0.85230000       1.85090000
H       -2.07190000      -0.16300000      -0.34110000
H       -1.02500000      -1.08270000      -1.42610000
H        1.06260000      -1.72160000       3.29080000
H       -0.61620000      -2.47040000       3.16820000
H        0.16420000      -3.87320000       1.50390000
H        1.61580000      -1.22940000      -0.32220000
H        1.74160000      -0.24930000       1.14500000
