16
Properties=species:S:1:pos:R:3 gdb_28486=T pbc="F F F"
C       -0.04050000       1.51630000      -0.01100000
C        0.01020000       0.01490000      -0.00490000
N       -0.00730000      -0.60970000      -1.18290000
C        0.05180000      -1.93700000      -1.16250000
O        0.03730000      -2.54110000      -2.36670000
N        0.12190000      -2.71900000      -0.08790000
C        0.12860000      -2.08740000       1.08660000
C        0.07700000      -0.70140000       1.20630000
N        0.16240000      -0.05000000       2.44590000
H        0.79200000       1.93750000       0.56460000
H        0.00400000       1.88080000      -1.03740000
H       -0.96770000       1.88700000       0.44690000
H        0.08740000      -3.48910000      -2.18750000
H        0.18210000      -2.71460000       1.97590000
H       -0.03350000      -0.65620000       3.23160000
H       -0.39560000       0.79060000       2.51090000
