15
Properties=species:S:1:pos:R:3 gdb_35656=T pbc="F F F"
C        0.17680000      -1.13250000       0.31970000
C        0.03580000       0.04430000       0.12320000
C       -0.09790000       1.48320000      -0.13890000
N       -0.79720000       2.20910000       0.94870000
C        0.21290000       2.94900000       1.72120000
C        1.45010000       2.95230000       0.83050000
C        1.27550000       2.13640000      -0.21200000
C        2.62120000       3.69070000       1.14140000
N        3.55350000       4.31630000       1.42710000
H        0.28750000      -2.17300000       0.50290000
H       -0.65070000       1.60760000      -1.07900000
H       -1.43800000       2.86860000       0.52570000
H       -0.13760000       3.95590000       1.96710000
H        0.44000000       2.44550000       2.67070000
H        2.00490000       1.90110000      -0.97520000
