24
Properties=species:S:1:pos:R:3 gdb_5809=T pbc="F F F"
C       -0.82220000       1.73910000       0.62170000
C       -0.39620000       0.29980000       0.31830000
O        0.53990000      -0.16030000       1.29470000
C       -1.61500000      -0.62300000       0.16110000
C       -1.38420000      -2.10200000      -0.25170000
C       -0.77530000      -2.92280000       0.90170000
C       -2.75940000      -2.70150000      -0.60670000
C       -0.46690000      -2.19380000      -1.48490000
H        0.05970000       2.37160000       0.75440000
H       -1.43160000       2.15520000      -0.18700000
H       -1.41690000       1.78360000       1.54300000
H        0.17660000       0.29960000      -0.61580000
H        0.08430000      -0.18980000       2.14370000
H       -2.18620000      -0.60570000       1.10240000
H       -2.26930000      -0.15830000      -0.58920000
H       -1.42280000      -2.89340000       1.78650000
H       -0.66890000      -3.97350000       0.60880000
H        0.20640000      -2.54000000       1.18490000
H       -3.21230000      -2.18590000      -1.46110000
H       -2.66790000      -3.76200000      -0.86610000
H       -3.45490000      -2.62450000       0.23690000
H        0.55130000      -1.86500000      -1.25730000
H       -0.40590000      -3.22860000      -1.83940000
H       -0.84550000      -1.58270000      -2.31260000
