15
Properties=species:S:1:pos:R:3 gdb_80815=T pbc="F F F"
N        0.16970000       1.48020000      -0.01570000
C        0.11140000       0.05990000      -0.02170000
C       -0.09430000      -0.63540000       1.34780000
O       -1.51770000      -0.19230000       1.34320000
C       -1.28620000      -0.70930000      -0.01980000
C       -2.35480000      -0.68190000      -0.97760000
N       -3.17120000      -0.67230000      -1.79750000
C       -0.56550000      -1.93000000       0.65470000
O        0.38920000      -2.66880000      -0.03130000
H        0.14130000       1.86400000      -0.95300000
H       -0.60310000       1.86280000       0.52020000
H        0.86720000      -0.37980000      -0.67220000
H        0.46110000      -0.50880000       2.27510000
H       -1.25080000      -2.52210000       1.26770000
H       -0.03970000      -3.42540000      -0.44390000
