22
Properties=species:S:1:pos:R:3 gdb_120937=T pbc="F F F"
C       -0.04330000       1.54170000      -0.06920000
C       -0.17200000       0.03460000      -0.20940000
O        0.90590000      -0.43750000      -0.99850000
C        0.90440000      -1.82920000      -1.18130000
C       -0.04370000      -2.47140000      -2.23550000
N        1.11850000      -3.06750000      -2.98320000
C        1.91690000      -1.90280000      -3.41380000
C        2.06570000      -2.35400000      -2.01520000
C        3.30880000      -2.98170000      -1.45950000
H        0.90580000       1.80220000       0.40780000
H       -0.07560000       2.02260000      -1.05100000
H       -0.86030000       1.93990000       0.53980000
H       -0.15420000      -0.45050000       0.78120000
H       -1.13440000      -0.22800000      -0.67830000
H        0.83160000      -2.34160000      -0.21020000
H       -0.68960000      -3.25880000      -1.84180000
H       -0.63880000      -1.77210000      -2.83270000
H        2.71440000      -2.16730000      -4.10180000
H        1.41130000      -0.96630000      -3.63670000
H        3.96910000      -2.21650000      -1.03520000
H        3.07290000      -3.70130000      -0.66800000
H        3.86000000      -3.50940000      -2.24300000
