13
Properties=species:S:1:pos:R:3 gdb_132369=T pbc="F F F"
C       -0.02250000       1.47690000       0.01020000
C       -0.01330000      -0.02370000       0.00210000
N       -0.00740000      -0.63390000      -1.19040000
C        0.02270000      -1.94910000      -1.16670000
F        0.03000000      -2.55870000      -2.33980000
C        0.04670000      -2.71920000      -0.01300000
C        0.03510000      -1.96180000       1.14920000
F        0.05490000      -2.58420000       2.31550000
N        0.00540000      -0.64690000       1.18770000
H        1.00890000       1.84950000       0.00230000
H       -0.52150000       1.85900000      -0.88150000
H       -0.50460000       1.84940000       0.91520000
H        0.06800000      -3.79910000      -0.01900000
