15
Properties=species:S:1:pos:R:3 gdb_16360=T pbc="F F F"
C       -0.27840000       1.49480000       0.03050000
C        0.11180000       0.03430000       0.00360000
O        1.36910000      -0.19040000      -0.72960000
C        1.97800000      -0.79520000       0.35180000
O        3.07270000      -1.24930000       0.41580000
C        0.77090000      -0.58980000       1.23720000
C        0.69420000      -0.20740000       2.66670000
N        0.26500000      -1.53920000       2.21740000
H        0.52080000       2.10290000       0.46290000
H       -0.48240000       1.85520000      -0.98180000
H       -1.18650000       1.63370000       0.62710000
H       -0.67210000      -0.59040000      -0.43800000
H        1.60120000      -0.19810000       3.26350000
H       -0.05640000       0.52720000       2.94750000
H       -0.75000000      -1.58990000       2.15860000
