17
Properties=species:S:1:pos:R:3 gdb_89946=T pbc="F F F"
O        0.42190000       0.91010000      -0.70010000
C        0.02640000      -0.24740000      -0.03710000
C        0.14750000      -0.29830000       1.52710000
C       -1.37110000      -0.65350000       1.64420000
C       -2.30510000       0.57970000       1.78570000
N       -2.14900000       0.86880000       0.33460000
C       -1.50920000      -0.44600000       0.08560000
C       -1.73290000      -1.86260000       2.33700000
N       -2.02660000      -2.83670000       2.88840000
H       -0.26660000       1.56160000      -0.48610000
H        0.52600000      -1.09790000      -0.50870000
H        0.81810000      -1.06880000       1.90970000
H        0.40550000       0.65940000       1.98510000
H       -3.32160000       0.29170000       2.07370000
H       -1.95450000       1.37760000       2.44820000
H       -3.01960000       1.01750000      -0.15910000
H       -2.03210000      -1.13110000      -0.58340000
