20
Properties=species:S:1:pos:R:3 gdb_22079=T pbc="F F F"
C       -0.87310000       1.05880000       0.05660000
C        0.16490000      -0.03270000       0.09600000
N        0.84130000      -0.32390000       1.14390000
O        0.47350000       0.48240000       2.23560000
C        0.40530000      -0.83360000      -1.13060000
C        1.36860000      -2.00380000      -1.17040000
C       -0.11070000      -2.25510000      -1.29050000
C       -0.86660000      -2.95500000      -0.18670000
O       -0.61630000      -2.49340000      -2.58060000
H       -1.28900000       1.17450000      -0.94550000
H       -1.68770000       0.83360000       0.75340000
H       -0.44040000       2.00920000       0.38380000
H        1.07500000       0.17650000       2.92220000
H        0.32360000      -0.26310000      -2.05110000
H        1.96630000      -2.11020000      -2.06870000
H        1.86280000      -2.26050000      -0.24090000
H       -0.49410000      -2.65940000       0.79620000
H       -1.93440000      -2.72090000      -0.24680000
H       -0.75390000      -4.04250000      -0.27730000
H       -0.46510000      -3.42300000      -2.78670000
