16
Properties=species:S:1:pos:R:3 gdb_47190=T pbc="F F F"
O       -0.30610000      -0.02930000       0.30150000
C       -0.03820000       1.10690000      -0.03000000
C       -1.04560000       2.01920000      -0.72910000
C       -1.48450000       3.21650000       0.11380000
O       -2.64930000       3.37250000       0.41360000
C       -0.47230000       4.22870000       0.50430000
C        0.85270000       4.14980000       0.34700000
C        1.64480000       2.98190000      -0.19650000
N        1.18700000       1.66490000       0.20780000
H       -0.60530000       2.39670000      -1.66180000
H       -1.92700000       1.42510000      -0.96270000
H       -0.91080000       5.11990000       0.94410000
H        1.45220000       5.01330000       0.62700000
H        1.69470000       3.06440000      -1.29560000
H        2.67760000       3.07400000       0.14770000
H        1.84140000       1.05210000       0.66940000
