16
Properties=species:S:1:pos:R:3 gdb_29638=T pbc="F F F"
C       -0.04290000       1.44980000      -0.03110000
N       -0.04050000      -0.00890000      -0.00370000
C       -1.20340000      -0.70780000      -0.03500000
N       -2.37920000      -0.00960000      -0.11410000
C       -1.15580000      -2.09140000      -0.03890000
C        0.11370000      -2.67710000      -0.01450000
N        1.26060000      -2.03690000       0.02460000
C        1.25730000      -0.66940000       0.04010000
O        2.24920000       0.02960000       0.08530000
H        0.99850000       1.75750000      -0.10070000
H       -0.60430000       1.81900000      -0.89500000
H       -0.47250000       1.86540000       0.88890000
H       -2.40750000       0.93160000       0.24150000
H       -3.21680000      -0.54380000       0.05230000
H       -2.06310000      -2.67900000      -0.06110000
H        0.18180000      -3.76560000      -0.02240000
