15
Properties=species:S:1:pos:R:3 gdb_10258=T pbc="F F F"
C       -0.06650000       1.56510000      -0.04360000
C        0.00330000       0.04080000      -0.03920000
O        0.78820000      -0.45470000      -1.11000000
C        0.70440000      -0.51000000       1.23670000
C        0.07290000      -0.05460000       2.47450000
C       -0.45010000       0.32390000       3.48630000
C        0.75460000      -1.98140000       1.19700000
N        0.78580000      -3.13540000       1.18300000
H        0.94000000       1.99290000       0.00100000
H       -0.54200000       1.91010000      -0.96760000
H       -0.65090000       1.93990000       0.80000000
H       -1.01180000      -0.38080000      -0.06670000
H        0.32700000      -0.27690000      -1.93510000
H        1.74130000      -0.14800000       1.19880000
H       -0.90930000       0.65240000       4.38630000
