14
Properties=species:S:1:pos:R:3 gdb_10968=T pbc="F F F"
O       -0.09320000       1.45480000      -0.06010000
C       -0.01320000       0.07650000      -0.02260000
C       -1.31130000      -0.77440000      -0.05600000
C       -0.39090000      -1.93520000       0.44110000
C        0.64640000      -1.99560000      -0.66510000
C        0.88490000      -0.70700000      -0.97220000
C        0.31560000      -0.79060000       1.28640000
O        0.79070000      -0.63400000       2.36000000
H        0.77930000       1.82180000       0.11850000
H       -2.05130000      -0.45310000       0.68330000
H       -1.75230000      -0.91480000      -1.04540000
H       -0.77820000      -2.84890000       0.88130000
H        1.15710000      -2.88570000      -1.00410000
H        1.62690000      -0.27500000      -1.62970000
