21
Properties=species:S:1:pos:R:3 gdb_119277=T pbc="F F F"
O       -0.51240000       1.47320000      -0.62810000
C       -0.36180000       0.06450000      -0.72970000
C       -1.56220000      -0.56590000      -0.02750000
C       -1.61100000      -2.08010000      -0.13970000
C       -0.48440000      -2.83200000       0.55160000
C       -0.56340000      -4.35290000       0.48730000
O        0.67160000      -4.85240000       0.98150000
C       -2.91450000      -2.71340000      -0.40310000
O       -1.95810000      -2.55490000      -1.45520000
H        0.22770000       1.88680000      -1.08170000
H       -0.34500000      -0.26590000      -1.77930000
H        0.57860000      -0.26420000      -0.26160000
H       -1.55440000      -0.27200000       1.02900000
H       -2.46730000      -0.14290000      -0.47440000
H        0.46910000      -2.54040000       0.09580000
H       -0.43400000      -2.51390000       1.59980000
H       -1.40420000      -4.72070000       1.09590000
H       -0.73870000      -4.66240000      -0.55290000
H        0.65300000      -5.81150000       0.91680000
H       -3.10600000      -3.74060000      -0.09990000
H       -3.80360000      -2.08870000      -0.48190000
