19
Properties=species:S:1:pos:R:3 gdb_80354=T pbc="F F F"
C       -0.19910000       1.61240000       0.02720000
C       -0.00540000       0.08930000       0.02500000
C        1.12550000      -0.51890000      -0.89760000
C        1.73320000      -1.23550000       0.31370000
C        2.15230000      -0.24270000       1.35120000
O        2.65310000       1.03050000       1.04640000
C        0.69730000      -0.56080000       1.24650000
C       -1.27830000      -0.57920000      -0.22470000
C       -2.33540000      -1.11750000      -0.42410000
H        0.75230000       2.11550000       0.19770000
H       -0.61910000       1.94140000      -0.92870000
H       -0.89910000       1.90480000       0.81620000
H        0.72460000      -1.19270000      -1.65390000
H        1.77210000       0.22280000      -1.37480000
H        2.09050000      -2.25840000       0.31410000
H        2.61120000      -0.69450000       2.23230000
H        3.53590000       0.91900000       0.67730000
H        0.15060000      -0.97790000       2.08410000
H       -3.26820000      -1.59130000      -0.60450000
