17
Properties=species:S:1:pos:R:3 gdb_51366=T pbc="F F F"
O       -0.63380000       0.41460000       0.47070000
C        0.11620000       0.94500000      -0.30610000
C        1.17270000       1.96610000       0.06450000
C        1.26310000       3.08100000      -0.97880000
C        1.32350000       4.57060000      -0.75580000
C        2.33850000       4.99930000       0.35020000
O        2.94630000       3.83590000       0.93030000
C        3.42830000       4.31430000      -0.33260000
C        2.47100000       3.84400000      -1.46960000
H        0.08230000       0.69060000      -1.39470000
H        0.96630000       2.33610000       1.06830000
H        2.12550000       1.42360000       0.11910000
H        0.61620000       2.88260000      -1.83570000
H        0.60300000       5.25840000      -1.17970000
H        2.30940000       5.90270000       0.94630000
H        4.48460000       4.53690000      -0.41890000
H        2.74000000       3.89390000      -2.51710000
