15
Properties=species:S:1:pos:R:3 gdb_125093=T pbc="F F F"
C        0.00540000       1.60950000       0.03950000
C        0.03880000       0.11610000      -0.01570000
C       -0.03250000      -0.74230000      -1.11280000
N        0.04060000      -2.01050000      -0.62850000
N        0.15450000      -2.05220000       0.70740000
C        0.15330000      -0.77300000       1.07420000
O        0.25270000      -0.39820000       2.36540000
C       -0.15930000      -0.51210000      -2.54400000
O       -0.20550000      -1.41140000      -3.35950000
H        0.91640000       2.00800000       0.49920000
H       -0.08840000       2.05050000      -0.95550000
H       -0.83630000       1.96350000       0.64460000
H        0.01500000      -2.85360000      -1.17770000
H        0.31750000      -1.20150000       2.89690000
H       -0.21160000       0.55180000      -2.85050000
