21
Properties=species:S:1:pos:R:3 gdb_17132=T pbc="F F F"
C       -0.29200000       1.47160000      -0.07520000
C       -0.00540000      -0.02720000      -0.04720000
C        1.26170000      -0.46060000      -0.84560000
C        2.04760000      -0.53650000       0.48890000
C        0.69720000      -0.52940000       1.25080000
N        2.87970000      -1.71020000       0.67440000
C        4.28140000      -1.57180000       0.28540000
C        3.89470000      -1.61890000       1.72160000
H        0.59790000       2.05710000       0.18360000
H       -0.61990000       1.79250000      -1.07030000
H       -1.08010000       1.73640000       0.63870000
H       -0.91500000      -0.57450000      -0.31010000
H        1.15650000      -1.45790000      -1.28010000
H        1.63160000       0.22640000      -1.61200000
H        2.61290000       0.39360000       0.67160000
H        0.62140000       0.10330000       2.13980000
H        0.40470000      -1.54950000       1.51200000
H        4.72680000      -2.43740000      -0.19630000
H        4.60820000      -0.61110000      -0.11020000
H        3.96310000      -0.68970000       2.28560000
H        4.05260000      -2.51960000       2.30780000
