16
Properties=species:S:1:pos:R:3 gdb_24127=T pbc="F F F"
C       -0.05470000       1.61570000       0.01570000
C       -0.16320000       0.14480000       0.37020000
C       -1.28750000      -0.67360000      -0.09590000
O        0.00390000      -0.78470000      -0.69760000
C        1.35470000       2.08500000      -0.12110000
N        1.91900000       2.66440000      -1.13230000
C        3.22770000       2.89130000      -0.72050000
C        3.38280000       2.42580000       0.53860000
O        2.18400000       1.90440000       0.94250000
H       -0.55790000       1.80980000      -0.93360000
H       -0.56080000       2.20120000       0.79530000
H        0.33640000      -0.14440000       1.29510000
H       -1.61090000      -1.53450000       0.48730000
H       -2.05620000      -0.22120000      -0.72150000
H        3.95120000       3.36800000      -1.36220000
H        4.19240000       2.37820000       1.24590000
