17
Properties=species:S:1:pos:R:3 gdb_65003=T pbc="F F F"
C       -0.19120000       1.47880000       0.40360000
C        0.03010000       0.03120000       0.01080000
C        1.38870000      -0.39620000      -0.47970000
C        0.90620000      -0.83140000       0.88450000
C       -1.22430000      -0.60410000      -0.63060000
C       -1.58820000       0.08720000      -1.88050000
N       -1.86470000       0.66320000      -2.84200000
C       -1.09060000      -2.04580000      -0.88110000
N       -0.97470000      -3.18190000      -1.05020000
H        0.71710000       1.89150000       0.84980000
H       -0.44940000       2.09590000      -0.46320000
H       -0.99730000       1.57360000       1.14090000
H        1.44600000      -1.15530000      -1.25210000
H        2.15650000       0.36630000      -0.54460000
H        1.33540000      -0.36130000       1.76230000
H        0.65390000      -1.87750000       1.01470000
H       -2.06630000      -0.47720000       0.06510000
