19
Properties=species:S:1:pos:R:3 gdb_40242=T pbc="F F F"
C       -0.00460000       1.48800000       0.01710000
C        1.30340000       0.72400000      -0.02040000
C       -0.02450000      -0.00660000      -0.02140000
O       -0.42500000      -0.61830000       1.17210000
C       -0.04170000      -1.98580000       1.23140000
C       -0.80910000      -2.82880000       0.20530000
C       -0.81730000      -2.15540000      -1.15730000
O       -1.80570000      -1.13410000      -1.34380000
C       -0.43700000      -0.73550000      -1.26050000
H       -0.29000000       1.94090000       0.95940000
H       -0.31990000       2.03070000      -0.86700000
H        1.89400000       0.74630000      -0.93040000
H        1.87700000       0.67590000       0.89780000
H        1.04220000      -2.07630000       1.05840000
H       -0.25160000      -2.31760000       2.25170000
H       -0.35040000      -3.82120000       0.13210000
H       -1.84580000      -2.96830000       0.52940000
H       -0.68160000      -2.79880000      -2.02630000
H       -0.01180000      -0.35400000      -2.18930000
