17
Properties=species:S:1:pos:R:3 gdb_111370=T pbc="F F F"
C        0.05230000       1.26150000      -0.74080000
N       -0.20230000       0.39630000       0.40560000
C       -1.42770000      -0.33910000       0.33280000
C       -1.53680000      -1.60280000      -0.56550000
O       -0.55520000      -2.52530000      -0.07100000
C       -1.81570000      -2.46730000       0.58940000
C       -1.76380000      -1.28110000       1.57340000
C       -0.78760000      -1.36660000       2.64650000
N       -0.00570000      -1.44230000       3.49430000
H        1.01070000       1.76850000      -0.60160000
H        0.08030000       0.73890000      -1.71190000
H       -0.72650000       2.03060000      -0.79670000
H        0.56930000      -0.24840000       0.54710000
H       -2.25860000       0.35110000       0.15500000
H       -1.83410000      -1.70450000      -1.60240000
H       -2.38650000      -3.38250000       0.68210000
H       -2.74640000      -1.03870000       1.98560000
