21
Properties=species:S:1:pos:R:3 gdb_96159=T pbc="F F F"
C        0.01780000       1.51880000       0.05670000
C       -0.01170000      -0.00450000       0.00400000
C        0.71060000      -0.52940000      -1.24490000
O        0.64260000      -1.92700000      -1.44460000
C        1.36430000      -2.68900000      -0.48590000
C        0.56970000      -2.93740000       0.78150000
C        1.20700000      -2.68470000       2.13750000
C        0.17910000      -1.73790000       1.60440000
O        0.62310000      -0.47910000       1.19860000
H        1.05080000       1.88050000       0.08260000
H       -0.47960000       1.95210000      -0.81610000
H       -0.48730000       1.87370000       0.95820000
H       -1.05240000      -0.36020000      -0.01740000
H        0.25730000      -0.07900000      -2.13520000
H        1.76290000      -0.20130000      -1.19400000
H        1.60200000      -3.64030000      -0.97290000
H        2.31380000      -2.18790000      -0.24910000
H       -0.16220000      -3.73730000       0.71780000
H        0.94300000      -3.32560000       2.97100000
H        2.23230000      -2.33040000       2.14270000
H       -0.81050000      -1.73490000       2.06310000
