12
Properties=species:S:1:pos:R:3 gdb_45716=T pbc="F F F"
O       -0.02150000      -0.06080000       0.00360000
C       -0.02220000       1.14320000       0.01070000
N       -1.19530000       1.88560000       0.02960000
C       -1.25580000       3.26270000       0.03710000
C       -0.18030000       4.07660000       0.02710000
C        1.17380000       3.54400000       0.00680000
O        2.18720000       4.20860000      -0.00370000
C        1.28370000       1.99070000      -0.00230000
O        2.34220000       1.43030000      -0.01950000
H       -2.04970000       1.34540000       0.03770000
H       -2.26470000       3.65960000       0.05210000
H       -0.30830000       5.15100000       0.03400000
