14
Properties=species:S:1:pos:R:3 gdb_132564=T pbc="F F F"
C        0.00270000       1.49380000      -0.05060000
C        0.02520000      -0.00610000      -0.02310000
N        0.04610000      -0.68670000      -1.17280000
C        0.06580000      -2.01410000      -1.11420000
O        0.08690000      -2.70590000      -2.27100000
C        0.06510000      -2.70390000       0.10130000
N        0.04430000      -2.03370000       1.25180000
C        0.02500000      -0.72520000       1.17580000
F        0.00430000      -0.04720000       2.32480000
H        0.87000000       1.90820000       0.47410000
H        0.00800000       1.84240000      -1.08380000
H       -0.88750000       1.88140000       0.45600000
H        0.08350000      -2.05160000      -2.98310000
H        0.08120000      -3.78780000       0.13360000
