14
Properties=species:S:1:pos:R:3 gdb_16933=T pbc="F F F"
O        0.02030000      -0.00060000      -0.03100000
C       -0.01620000       1.19670000      -0.01000000
C       -1.24840000       2.12760000       0.02640000
C       -0.53900000       3.49170000       0.09280000
C        0.15300000       3.64000000       1.45840000
O        1.22420000       2.68450000       1.34770000
C        1.15000000       2.20700000       0.00120000
O        0.62100000       3.27210000      -0.74800000
H       -1.82000000       2.02240000      -0.89990000
H       -1.90230000       1.89710000       0.87050000
H       -1.09630000       4.35560000      -0.26280000
H        0.56750000       4.64280000       1.60510000
H       -0.49320000       3.38160000       2.30300000
H        2.12370000       1.87800000      -0.35450000
