19
Properties=species:S:1:pos:R:3 gdb_82388=T pbc="F F F"
O        0.04790000       1.45700000      -0.02260000
C       -0.01200000       0.04700000      -0.00110000
C        0.65910000      -0.51000000       1.27060000
N        1.04370000       0.51800000       2.25010000
C       -0.12380000      -0.35260000       2.52050000
C       -1.50260000       0.27350000       2.35790000
N       -2.22230000      -0.38100000       1.24590000
C       -2.60880000       0.45120000       0.10280000
C       -1.45430000      -0.47250000      -0.00760000
H        0.55200000       1.70740000       0.77120000
H        0.50240000      -0.35020000      -0.88690000
H        1.29770000      -1.37920000       1.14980000
H        1.85440000       0.22650000       2.78780000
H       -0.00690000      -1.10390000       3.29590000
H       -2.09670000       0.13370000       3.26610000
H       -1.38300000       1.35200000       2.20070000
H       -3.56150000       0.20040000      -0.35660000
H       -2.37020000       1.51050000       0.14090000
H       -1.57660000      -1.42280000      -0.52570000
