19
Properties=species:S:1:pos:R:3 gdb_51675=T pbc="F F F"
O        0.07970000      -0.00730000      -0.12920000
C        0.05230000       1.18590000      -0.16420000
O        1.07350000       1.95370000       0.25740000
C        0.96170000       3.37210000       0.15090000
C        1.37170000       4.17000000       1.41290000
C        2.27820000       5.07950000       0.52870000
C        3.77440000       4.69580000       0.55310000
C        3.49370000       3.56250000      -0.48040000
C        2.04210000       4.09110000      -0.67730000
H       -0.80470000       1.78130000      -0.53750000
H       -0.04760000       3.63130000      -0.19050000
H        0.54930000       4.66370000       1.93460000
H        1.92820000       3.56510000       2.13370000
H        2.00880000       6.13500000       0.49730000
H        4.41280000       5.48160000       0.14040000
H        4.18190000       4.39750000       1.52370000
H        4.10970000       3.60270000      -1.38050000
H        3.53780000       2.54670000      -0.08290000
H        1.77120000       4.40660000      -1.68560000
