15
Properties=species:S:1:pos:R:3 gdb_9317=T pbc="F F F"
C       -0.02820000       1.48230000       0.01040000
C       -0.02090000      -0.03510000       0.00200000
O       -1.36890000      -0.48680000       0.01280000
C       -1.48530000      -1.86750000       0.00630000
C       -2.94810000      -2.26370000       0.01830000
O       -3.88330000      -1.51240000       0.03140000
C       -3.14750000      -3.73340000       0.01210000
N       -3.29150000      -4.88060000       0.00700000
H        0.99680000       1.86400000       0.00240000
H       -0.55130000       1.86800000      -0.86860000
H       -0.53370000       1.85820000       0.90390000
H        0.49500000      -0.42030000      -0.89260000
H        0.51250000      -0.43020000       0.88180000
H       -1.02130000      -2.33630000      -0.88310000
H       -1.00420000      -2.34600000       0.88120000
