16
Properties=species:S:1:pos:R:3 gdb_23306=T pbc="F F F"
N        0.08770000       1.35550000       0.11930000
C       -0.02640000      -0.00910000       0.03670000
C       -1.14800000      -0.77110000      -0.03210000
C       -0.78900000      -2.18000000      -0.01270000
N       -1.50250000      -3.24440000       0.00950000
O       -2.87680000      -2.92760000      -0.01130000
C        0.70700000      -2.27010000       0.00450000
N        1.35370000      -1.65520000      -1.18940000
C        1.19880000      -0.87350000       0.06950000
H        0.93620000       1.75890000      -0.24790000
H       -0.73700000       1.89230000      -0.10500000
H       -2.16180000      -0.41370000      -0.13520000
H       -3.28240000      -3.79990000       0.01270000
H        1.19740000      -3.09670000       0.50280000
H        2.31140000      -2.00520000      -1.22880000
H        2.07580000      -0.57120000       0.63220000
