19
Properties=species:S:1:pos:R:3 gdb_28412=T pbc="F F F"
C        0.00060000       1.52020000      -0.00560000
C        0.02410000       0.01320000      -0.00150000
C        0.00850000      -0.70330000      -1.19610000
C        0.04610000      -2.10110000      -1.23070000
N        0.10140000      -2.79250000      -2.45610000
C        0.09670000      -2.78320000      -0.01270000
C        0.10330000      -2.08320000       1.18800000
C        0.06940000      -0.68750000       1.21820000
N        0.14950000       0.01300000       2.43980000
H        0.84200000       1.93280000       0.56390000
H        0.05270000       1.91400000      -1.02350000
H       -0.91670000       1.91990000       0.45020000
H       -0.02470000      -0.15320000      -2.13360000
H       -0.33810000      -2.29390000      -3.21810000
H       -0.26930000      -3.73170000      -2.40260000
H        0.12850000      -3.86890000      -0.00260000
H        0.13640000      -2.63330000       2.12480000
H       -0.08920000      -0.56150000       3.23710000
H       -0.39830000       0.86310000       2.45900000
