19
Properties=species:S:1:pos:R:3 gdb_93783=T pbc="F F F"
C       -0.40280000       1.47270000       0.03530000
C       -0.05050000      -0.00550000       0.06880000
C        0.39700000      -0.54370000      -1.30710000
C        1.28740000      -1.75730000      -1.13940000
O        2.10530000      -2.12380000      -1.95410000
C        1.11710000      -2.52230000       0.16630000
O        2.04880000      -3.55930000       0.26930000
C        1.22430000      -1.53140000       1.36200000
O        1.02040000      -0.17730000       0.99100000
H        0.47520000       2.06110000      -0.24860000
H       -1.19900000       1.66300000      -0.69080000
H       -0.73860000       1.80770000       1.01980000
H       -0.92670000      -0.57680000       0.41990000
H       -0.46810000      -0.82060000      -1.92350000
H        0.96130000       0.21060000      -1.86470000
H        0.09330000      -2.93730000       0.14340000
H        2.54560000      -3.53380000      -0.56580000
H        0.51600000      -1.82050000       2.15260000
H        2.23940000      -1.60430000       1.75860000
