20
Properties=species:S:1:pos:R:3 gdb_95637=T pbc="F F F"
C       -0.01500000       1.58080000       0.02110000
C        0.03380000       0.04990000      -0.00300000
C        0.70490000      -0.50360000      -1.27740000
N        0.76940000      -1.96560000      -1.33150000
C        1.45780000      -2.54300000      -0.16920000
C        0.85330000      -2.05280000       1.14360000
O        0.48400000      -2.78470000       2.03380000
C        0.73820000      -0.52390000       1.23880000
O        2.05970000       0.02250000       1.28340000
H        0.99410000       1.99990000       0.03240000
H       -0.53920000       1.96560000      -0.85960000
H       -0.54050000       1.94520000       0.91000000
H       -0.99530000      -0.33820000       0.02240000
H        0.16680000      -0.15010000      -2.16330000
H        1.72820000      -0.11590000      -1.34490000
H       -0.17300000      -2.34370000      -1.37740000
H        1.40770000      -3.63380000      -0.20270000
H        2.51180000      -2.24170000      -0.21010000
H        0.17910000      -0.27610000       2.15140000
H        2.46040000      -0.23780000       2.11920000
