19
Properties=species:S:1:pos:R:3 gdb_54381=T pbc="F F F"
C       -0.41000000       1.38990000      -0.17790000
C        0.07240000      -0.03520000      -0.04490000
O        0.43190000      -0.53610000       0.99630000
C        0.09000000      -0.85030000      -1.30890000
C        1.30730000      -1.46040000      -2.05330000
C        0.03390000      -1.64470000      -2.92250000
C       -0.10060000      -2.08090000      -4.34670000
C       -0.73620000      -2.11610000      -1.65930000
O       -0.35160000      -0.24000000      -2.58390000
H        0.21100000       1.92550000      -0.90410000
H       -1.42710000       1.40050000      -0.58460000
H       -0.38010000       1.88640000       0.79250000
H        2.02620000      -0.73190000      -2.43070000
H        1.77440000      -2.34680000      -1.61970000
H        0.21620000      -3.12300000      -4.45380000
H       -1.14050000      -1.99830000      -4.67650000
H        0.52180000      -1.46000000      -4.99800000
H       -0.44280000      -3.05830000      -1.19230000
H       -1.81610000      -1.96490000      -1.69000000
