20
Properties=species:S:1:pos:R:3 gdb_12417=T pbc="F F F"
C       -0.02930000       1.52360000      -0.01380000
C        0.06770000       0.00710000       0.03500000
O        0.82190000      -0.41640000      -1.10500000
C        0.80880000      -1.83100000      -1.26530000
C        1.44820000      -2.54280000      -0.07100000
C        0.80400000      -2.06940000       1.24150000
C        0.76620000      -0.53200000       1.29660000
O        2.07500000       0.01530000       1.40460000
H        0.95810000       1.97610000       0.10430000
H       -0.45410000       1.84460000      -0.96820000
H       -0.66970000       1.88700000       0.79560000
H       -0.94380000      -0.43040000      -0.02190000
H       -0.23120000      -2.17500000      -1.39820000
H        1.35110000      -2.03710000      -2.19280000
H        1.34950000      -3.62750000      -0.18820000
H        2.52180000      -2.32130000      -0.05350000
H       -0.22310000      -2.45200000       1.31340000
H        1.35570000      -2.45110000       2.10580000
H        0.22260000      -0.20310000       2.18970000
H        2.43830000       0.01570000       0.51000000
