20
Properties=species:S:1:pos:R:3 gdb_46055=T pbc="F F F"
O       -0.15450000      -0.06000000      -0.00400000
C       -0.11060000       1.14860000       0.06100000
C       -1.29030000       2.11800000       0.19040000
C       -0.64450000       3.48220000       0.48080000
C        0.81080000       3.35640000      -0.05300000
N        1.02480000       1.91660000       0.01370000
C        1.00380000       3.91300000      -1.45050000
C        1.38700000       5.35840000      -1.63720000
C        2.38640000       4.26890000      -1.93830000
H       -1.83910000       2.10380000      -0.75780000
H       -1.98020000       1.77670000       0.96420000
H       -1.16440000       4.32240000       0.01630000
H       -0.61910000       3.66290000       1.55900000
H        1.51040000       3.87060000       0.61880000
H        1.90290000       1.48980000      -0.23890000
H        0.32880000       3.49080000      -2.19140000
H        0.95140000       5.90440000      -2.46610000
H        1.54850000       5.95930000      -0.74770000
H        3.21690000       4.14460000      -1.25000000
H        2.63640000       4.06770000      -2.97370000
