22
Properties=species:S:1:pos:R:3 gdb_121744=T pbc="F F F"
C        0.00070000       1.30980000       0.42430000
C       -0.11140000      -0.16000000       0.00930000
C       -1.54090000      -0.66670000       0.10200000
O       -1.54780000      -2.05070000      -0.30430000
C       -2.73870000      -2.67310000      -0.26770000
O       -3.76560000      -2.15270000       0.09390000
C       -2.63140000      -4.10920000      -0.78410000
N       -3.78540000      -4.93700000      -0.50680000
C       -3.90520000      -5.31700000       0.90000000
H        1.03450000       1.65820000       0.35050000
H       -0.61380000       1.95320000      -0.21470000
H       -0.32790000       1.45870000       1.45860000
H        0.24640000      -0.29180000      -1.01820000
H        0.52760000      -0.78310000       0.64550000
H       -1.93440000      -0.59360000       1.12150000
H       -2.21650000      -0.10150000      -0.54940000
H       -2.46930000      -4.04250000      -1.86850000
H       -1.72790000      -4.56970000      -0.37080000
H       -4.61690000      -4.42000000      -0.77590000
H       -4.81710000      -5.90530000       1.03560000
H       -3.05670000      -5.95390000       1.17530000
H       -3.93860000      -4.46610000       1.59850000
