17
Properties=species:S:1:pos:R:3 gdb_80920=T pbc="F F F"
C        0.06830000       1.42620000      -0.04040000
C       -0.02080000      -0.05520000       0.10830000
O        0.60520000      -0.92300000      -0.95660000
C        0.02880000      -1.89690000       0.01500000
C        0.64570000      -1.02260000       1.14900000
O        2.02790000      -0.98300000       1.25240000
C       -1.21510000      -1.01590000       0.08170000
C       -2.55570000      -1.07500000       0.64570000
O       -2.30900000      -0.99570000      -0.78110000
H        1.11320000       1.74950000      -0.01420000
H       -0.37940000       1.74540000      -0.98570000
H       -0.46240000       1.91800000       0.78110000
H        0.14410000      -2.95650000      -0.20640000
H        0.21270000      -1.08440000       2.14980000
H        2.34350000      -0.94630000       0.33650000
H       -2.96360000      -2.02380000       0.98980000
H       -3.00530000      -0.18600000       1.08480000
