20
Properties=species:S:1:pos:R:3 gdb_89683=T pbc="F F F"
C       -0.10360000       1.56730000       0.07930000
C        0.05010000       0.05670000      -0.02700000
C        1.15340000      -0.52310000      -0.98550000
C        1.76320000      -1.25640000       0.20210000
N        2.09860000      -0.21530000       1.21940000
C        0.71830000      -0.68130000       1.15630000
C        0.01330000      -1.27670000       2.33790000
C        2.34440000      -2.59610000       0.25430000
O        2.49310000      -3.32070000      -0.70290000
H        0.85130000       2.03060000       0.34110000
H       -0.44210000       1.99010000      -0.87260000
H       -0.83960000       1.84100000       0.84350000
H       -0.91330000      -0.41460000      -0.24630000
H        0.75980000      -1.20130000      -1.74330000
H        1.81370000       0.21140000      -1.45220000
H        2.55520000      -0.67830000       2.00760000
H       -0.33210000      -0.48470000       3.01330000
H       -0.86320000      -1.85240000       2.02460000
H        0.66800000      -1.94030000       2.91160000
H        2.63360000      -2.92650000       1.28140000
