21
Properties=species:S:1:pos:R:3 gdb_69159=T pbc="F F F"
C       -0.06750000       1.54560000       0.10330000
C        0.02120000       0.04710000       0.02900000
C       -0.82920000      -0.84870000       0.85980000
C        0.68340000      -0.92640000       1.04810000
C        1.25580000      -1.69690000      -0.09680000
O        2.05330000      -2.58930000      -0.19100000
C        0.61880000      -0.75580000      -1.16690000
C       -0.33720000      -1.36080000      -2.19360000
C        1.76410000      -0.01310000      -1.86970000
H        0.87760000       2.02600000      -0.16710000
H       -0.83980000       1.92600000      -0.57590000
H       -0.33340000       1.87120000       1.11410000
H       -1.34390000      -0.37240000       1.68920000
H       -1.36970000      -1.69070000       0.43880000
H        1.14290000      -0.74390000       2.01230000
H       -1.19260000      -1.85880000      -1.73010000
H       -0.72380000      -0.58990000      -2.87020000
H        0.18920000      -2.10370000      -2.80170000
H        2.31620000      -0.70550000      -2.51130000
H        1.37700000       0.79970000      -2.49380000
H        2.47420000       0.41390000      -1.15440000
