16
Properties=species:S:1:pos:R:3 gdb_103455=T pbc="F F F"
O        0.23550000       0.93430000       0.75270000
C       -0.13200000       0.36910000      -0.50640000
C       -1.44290000      -0.36120000      -0.34950000
O       -2.45280000       0.44610000       0.18240000
C       -1.99860000      -1.38130000      -1.28800000
O       -1.09610000      -2.00520000      -2.19480000
C       -0.22300000      -2.69490000      -1.41050000
N       -0.37740000      -2.67460000      -0.14820000
C       -1.52300000      -1.82800000       0.09720000
H        0.53220000       0.20930000       1.31460000
H       -0.26550000       1.21530000      -1.18720000
H        0.65830000      -0.27380000      -0.90520000
H       -2.03400000       0.92260000       0.91300000
H       -3.01590000      -1.31580000      -1.65250000
H        0.55120000      -3.22380000      -1.95230000
H       -2.17600000      -2.08200000       0.92290000
