14
Properties=species:S:1:pos:R:3 gdb_77806=T pbc="F F F"
O       -0.22630000       1.37640000      -0.00240000
C       -0.11670000      -0.00500000       0.03200000
C       -0.42770000      -0.82410000       1.26210000
C       -1.58510000      -0.12740000       1.99060000
O       -1.73450000       0.34820000       3.07720000
N       -2.41960000      -0.21570000       0.87280000
C       -1.39070000      -0.82210000       0.04160000
C       -1.66950000      -1.91140000      -0.91100000
O       -2.77290000      -2.29940000      -1.19830000
H        0.37950000       1.75190000       0.64640000
H        0.68160000      -0.42370000      -0.58520000
H        0.20430000      -1.62320000       1.62480000
H       -3.02720000       0.53320000       0.56370000
H       -0.75260000      -2.34510000      -1.37060000
