19
Properties=species:S:1:pos:R:3 gdb_83903=T pbc="F F F"
C       -0.10750000       1.54530000       0.06350000
N        0.12760000       0.11050000       0.07570000
C        1.36750000      -0.52860000      -0.31080000
C        2.67320000       0.24970000      -0.37030000
C        2.87380000       0.90120000       1.02440000
C        1.87580000       0.21590000       1.99520000
C        0.88870000      -0.56330000       1.12350000
C        0.24950000      -1.71720000       1.71500000
N       -0.24060000      -2.64010000       2.21020000
H        0.73650000       2.17640000       0.36940000
H       -0.39580000       1.83250000      -0.95220000
H       -0.95280000       1.76170000       0.72300000
H        1.24990000      -1.38770000      -0.96670000
H        3.47950000      -0.45520000      -0.59770000
H        2.66990000       0.99220000      -1.17550000
H        3.90250000       0.77870000       1.37240000
H        2.69310000       1.97780000       0.98050000
H        2.38410000      -0.49430000       2.65390000
H        1.36420000       0.93480000       2.64300000
