22
Properties=species:S:1:pos:R:3 gdb_22243=T pbc="F F F"
C        0.16300000       1.56860000       0.09870000
C        0.04820000       0.04550000       0.00030000
C        0.79380000      -0.53320000      -1.20800000
C        0.64500000      -2.05700000      -1.33670000
O       -0.72170000      -2.45310000      -1.44820000
C        1.46820000      -2.62160000      -2.47910000
C        1.08510000      -2.34840000      -3.90780000
N        2.47410000      -3.32920000      -2.13430000
O        3.18720000      -3.79650000      -3.25130000
H        1.20850000       1.88470000       0.18660000
H       -0.25430000       2.05730000      -0.78920000
H       -0.37480000       1.95200000       0.97140000
H        0.44330000      -0.41460000       0.91520000
H       -1.00490000      -0.25050000      -0.05490000
H        0.43190000      -0.05260000      -2.13000000
H        1.86260000      -0.29470000      -1.14020000
H        1.00750000      -2.53010000      -0.41930000
H       -1.12970000      -1.93190000      -2.14830000
H        0.19400000      -1.72130000      -3.98190000
H        1.90610000      -1.85450000      -4.43690000
H        0.89540000      -3.28850000      -4.43490000
H        3.88730000      -4.31490000      -2.84090000
