24
Properties=species:S:1:pos:R:3 gdb_109685=T pbc="F F F"
C       -2.20710000      -0.02390000       3.33320000
C       -1.58790000      -0.34440000       1.96610000
C       -0.11410000      -0.68920000       2.06310000
N        0.40060000      -2.02810000       2.40080000
C       -0.50900000      -3.14020000       2.63470000
C        0.62350000      -1.49730000       1.04280000
C       -0.05720000      -2.09400000      -0.17430000
C        2.10340000      -1.21130000       0.82380000
O        2.85190000      -2.41570000       0.79250000
H       -1.67230000       0.79650000       3.82370000
H       -3.25520000       0.27340000       3.23120000
H       -2.16650000      -0.88970000       4.00160000
H       -2.15640000      -1.14250000       1.48120000
H       -1.68250000       0.53110000       1.31040000
H        0.45430000       0.10130000       2.55870000
H       -1.45920000      -3.11110000       2.08440000
H       -0.00200000      -4.07370000       2.36940000
H       -0.74370000      -3.18160000       3.70360000
H       -1.06980000      -2.45030000       0.01840000
H       -0.11480000      -1.34990000      -0.97640000
H        0.53850000      -2.93440000      -0.54480000
H        2.26790000      -0.71950000      -0.14160000
H        2.46870000      -0.53970000       1.61450000
H        2.66920000      -2.84550000       1.63740000
