13
Properties=species:S:1:pos:R:3 gdb_21146=T pbc="F F F"
C       -0.01680000       1.42840000      -0.14550000
N        0.00520000      -0.02540000      -0.15040000
C       -1.05330000      -0.65110000       0.15110000
O       -2.22690000      -0.00170000       0.48440000
N       -3.38060000      -0.72700000       0.81350000
C       -3.27260000      -2.00490000       0.78420000
N       -2.15700000      -2.77990000       0.46740000
C       -1.10550000      -2.10700000       0.16750000
H        0.96970000       1.80140000      -0.42610000
H       -0.75910000       1.82390000      -0.85130000
H       -0.27740000       1.82560000       0.84440000
H       -4.17950000      -2.54120000       1.04270000
H       -0.18440000      -2.62370000      -0.09390000
