11
Properties=species:S:1:pos:R:3 gdb_23636=T pbc="F F F"
F        0.03620000       0.02390000       0.00250000
C       -0.01840000       1.34880000       0.01070000
C       -1.21270000       1.98560000       0.03030000
C       -1.27520000       3.42740000       0.03970000
O       -2.24530000       4.12980000       0.05560000
O       -0.00670000       4.07840000       0.02580000
C        1.14260000       3.40130000       0.00660000
C        1.21970000       2.05430000      -0.00190000
H       -2.14920000       1.44550000       0.03950000
H        2.00440000       4.05880000      -0.00150000
H        2.16670000       1.53510000      -0.01750000
