18
Properties=species:S:1:pos:R:3 gdb_67139=T pbc="F F F"
C       -0.10070000       1.50770000       0.15730000
C       -0.00870000       0.03370000      -0.04300000
C        0.91460000      -0.90970000      -0.92390000
C        1.18660000      -1.65830000       0.38650000
N       -0.04650000      -1.02430000       0.98530000
C       -1.08850000      -1.03840000      -0.10470000
C       -2.53520000      -1.01340000       0.26350000
C       -0.42820000      -1.52900000      -1.36040000
O       -0.84610000      -1.97870000      -2.39130000
H        0.84290000       1.91640000       0.53400000
H       -0.33850000       2.01400000      -0.78380000
H       -0.88490000       1.74220000       0.88300000
H        1.66950000      -0.63850000      -1.65730000
H        1.18510000      -2.75410000       0.36430000
H        2.05550000      -1.29650000       0.94110000
H       -2.72020000      -0.30110000       1.07200000
H       -3.14370000      -0.73470000      -0.60190000
H       -2.86410000      -1.99950000       0.60640000
