9
Properties=species:S:1:pos:R:3 gdb_3888=T pbc="F F F"
N        0.08550000       1.34460000       0.15780000
C       -0.05070000      -0.00050000       0.03360000
N       -1.15240000      -0.66700000      -0.04340000
O       -0.70480000      -2.03040000      -0.05300000
C        0.63930000      -2.06750000      -0.00960000
O        1.34810000      -3.01630000      -0.01940000
O        1.07680000      -0.74270000       0.05060000
H        0.93710000       1.73330000      -0.21860000
H       -0.74970000       1.87380000      -0.04460000
