16
Properties=species:S:1:pos:R:3 gdb_80259=T pbc="F F F"
O       -0.01950000       1.40980000      -0.12140000
C        0.01020000       0.01720000       0.00040000
C        0.30530000      -0.56630000       1.42740000
N       -0.82210000       0.04520000       2.15140000
C       -1.95030000      -0.03940000       1.35590000
O       -3.09040000       0.20530000       1.66530000
C       -1.41650000      -0.59070000       0.00340000
C       -1.04580000      -2.04320000       0.29990000
C       -0.00530000      -2.03830000       1.14030000
H        0.88410000       1.74000000      -0.13980000
H        0.64890000      -0.45440000      -0.75500000
H        1.26660000      -0.32590000       1.88080000
H       -0.91820000      -0.03380000       3.15170000
H       -2.06810000      -0.39510000      -0.84400000
H       -1.58480000      -2.89460000      -0.09260000
H        0.50650000      -2.88620000       1.57560000
