16
Properties=species:S:1:pos:R:3 gdb_114424=T pbc="F F F"
O        0.01960000       1.37640000      -0.26410000
C        0.07960000       0.02510000       0.14770000
C       -1.30240000      -0.59900000       0.11310000
O       -1.88400000      -0.50890000      -1.22200000
C       -2.18780000      -1.92050000      -1.23870000
C       -1.49430000      -2.13750000       0.13230000
N       -0.49130000      -2.93540000      -0.56950000
C       -1.01370000      -2.74860000      -1.84230000
O       -0.63780000      -3.07240000      -2.93200000
H       -0.38870000       1.37660000      -1.13840000
H        0.76680000      -0.55810000      -0.48250000
H        0.46770000       0.01940000       1.17270000
H       -1.96610000      -0.09660000       0.82790000
H       -3.22120000      -2.14980000      -1.49770000
H       -1.94540000      -2.60390000       1.00630000
H        0.44290000      -3.20590000      -0.29360000
