21
Properties=species:S:1:pos:R:3 gdb_89175=T pbc="F F F"
C       -0.08890000       1.55150000       0.08900000
C        0.04930000       0.03830000       0.05460000
C       -1.16270000      -0.64730000      -0.56370000
C        1.35210000      -0.69140000      -0.25690000
C        2.58850000      -0.03770000       0.34270000
O        2.95910000       1.19580000      -0.24060000
C        1.91810000      -0.05250000       1.76400000
C        0.71690000      -0.77160000       1.13820000
O        0.14020000      -1.89280000       1.71850000
H        0.80320000       2.05050000       0.46400000
H       -0.26780000       1.93460000      -0.92220000
H       -0.94710000       1.84480000       0.70690000
H       -1.30130000      -0.31760000      -1.59910000
H       -1.06590000      -1.73500000      -0.55600000
H       -2.07650000      -0.38930000      -0.01420000
H        1.37860000      -1.43930000      -1.04120000
H        3.43350000      -0.73890000       0.32180000
H        3.76180000       1.50180000       0.19370000
H        2.45340000      -0.69260000       2.46900000
H        1.73280000       0.92140000       2.22690000
H       -0.61750000      -1.60790000       2.24120000
