16
Properties=species:S:1:pos:R:3 gdb_7268=T pbc="F F F"
C        0.10340000       1.46990000       0.09370000
N        0.11280000       0.02240000      -0.04740000
C        0.38160000      -0.75390000       1.14890000
C       -0.14780000      -0.50930000      -1.29110000
O       -0.23990000       0.14800000      -2.30180000
N       -0.32480000      -1.91640000      -1.27830000
C       -0.31790000      -2.75820000      -2.38210000
O       -0.02080000      -2.47580000      -3.50910000
H        1.08290000       1.83400000       0.42700000
H       -0.12770000       1.90520000      -0.87670000
H       -0.65030000       1.78470000       0.82630000
H       -0.52980000      -1.00670000       1.71200000
H        0.92020000      -1.67410000       0.91010000
H        1.02430000      -0.16880000       1.81270000
H       -0.57850000      -2.35690000      -0.40840000
H       -0.61760000      -3.78110000      -2.07030000
