16
Properties=species:S:1:pos:R:3 gdb_22947=T pbc="F F F"
O       -0.19480000       1.40770000      -0.06450000
N        0.02590000       0.03000000       0.08320000
C       -1.05860000      -0.61250000       0.02680000
C       -2.53020000      -0.35890000      -0.17660000
O       -2.76600000      -1.78780000      -0.14150000
C       -1.36570000      -2.09000000       0.09610000
C       -0.73930000      -2.98020000      -0.98380000
C       -1.23700000      -4.34850000      -0.94270000
C       -1.65320000      -5.47410000      -0.88700000
H        0.69640000       1.76840000      -0.00010000
H       -3.03470000       0.17350000       0.63950000
H       -2.81260000       0.09730000      -1.13330000
H       -1.22330000      -2.54430000       1.08510000
H       -0.93290000      -2.53210000      -1.96530000
H        0.34840000      -2.96630000      -0.83640000
H       -2.02180000      -6.46900000      -0.84740000
