20
Properties=species:S:1:pos:R:3 gdb_101284=T pbc="F F F"
C        0.10080000       1.47020000       0.09070000
O        0.11210000       0.05820000       0.02600000
C        0.62430000      -0.58840000       1.17970000
C       -0.50000000      -0.89920000       2.17260000
C        1.33150000      -1.85960000       0.73320000
C        1.03260000      -2.47710000      -0.59860000
C        2.39020000      -1.83180000      -0.36270000
C        2.75490000      -0.60340000      -1.01240000
N        3.10660000       0.37450000      -1.52220000
H        1.11940000       1.87430000       0.16000000
H       -0.35470000       1.82570000      -0.83620000
H       -0.49370000       1.83960000       0.93870000
H        1.36430000       0.06680000       1.66630000
H       -1.22900000      -1.57690000       1.71860000
H       -0.10480000      -1.36630000       3.08060000
H       -1.01880000       0.01800000       2.46550000
H        1.56210000      -2.53790000       1.54930000
H        1.01560000      -3.55670000      -0.69100000
H        0.34970000      -1.93640000      -1.24000000
H        3.23120000      -2.50430000      -0.22840000
