18
Properties=species:S:1:pos:R:3 gdb_81887=T pbc="F F F"
C       -0.19980000       1.60870000      -0.16370000
C       -0.05250000       0.09820000      -0.06510000
C        1.09330000      -0.60570000      -0.91450000
O        1.98090000       0.20260000      -1.62950000
C        1.64080000      -1.21760000       0.38400000
N        2.00750000      -0.08200000       1.22190000
C        0.58410000      -0.49200000       1.19810000
C       -0.02480000      -1.05460000       2.41100000
O        0.61410000      -1.38470000       3.38690000
H        0.72240000       2.11390000       0.13370000
H       -0.43400000       1.90620000      -1.19000000
H       -1.00480000       1.96630000       0.48680000
H       -1.00550000      -0.40120000      -0.27090000
H        0.69330000      -1.34530000      -1.61050000
H        2.47050000       0.71120000      -0.96910000
H        2.05030000      -2.20520000       0.56110000
H        2.39030000      -0.43850000       2.09920000
H       -1.12740000      -1.18290000       2.36900000
