19
Properties=species:S:1:pos:R:3 gdb_71902=T pbc="F F F"
O       -0.00660000       1.40050000       0.01890000
C        0.00150000       0.00500000       0.00400000
C        0.46350000      -0.71970000      -1.28690000
C       -0.69240000      -1.74690000      -1.13980000
C       -0.42930000      -2.80380000      -0.03830000
C       -0.75290000      -1.77080000       1.06990000
C        0.39260000      -0.74780000       1.30230000
C       -1.33990000      -0.80770000      -0.04150000
O       -2.56240000      -0.17690000      -0.06820000
H        0.90760000       1.70600000       0.03530000
H        0.28690000      -0.06340000      -2.14390000
H        1.48750000      -1.10630000      -1.32690000
H       -1.19210000      -2.06850000      -2.05410000
H       -1.18420000      -3.59590000      -0.06750000
H        0.56090000      -3.27070000      -0.01620000
H       -1.30180000      -2.11190000       1.94820000
H        1.41310000      -1.13590000       1.39020000
H        0.16900000      -0.10980000       2.16220000
H       -3.25540000      -0.84630000      -0.09280000
