20
Properties=species:S:1:pos:R:3 gdb_63191=T pbc="F F F"
C        0.09410000       1.50210000      -0.14180000
C       -0.03540000      -0.02130000      -0.06090000
C       -1.50260000      -0.45060000       0.04260000
C        0.79310000      -0.66020000      -1.18850000
C        1.57790000      -1.61430000      -0.65470000
C        2.95420000      -1.11900000      -0.18980000
C        2.16380000      -0.85760000       1.16460000
C        1.13750000      -1.85880000       0.81090000
N        0.66740000      -0.54060000       1.16830000
H        1.14130000       1.80600000      -0.23370000
H       -0.45700000       1.90000000      -0.99920000
H       -0.30950000       1.95020000       0.77120000
H       -2.04890000      -0.13950000      -0.85320000
H       -1.58360000      -1.53770000       0.12780000
H       -1.97990000      -0.00010000       0.91800000
H        1.10700000      -0.05170000      -2.03320000
H        3.71640000      -1.87880000       0.01870000
H        3.39310000      -0.28330000      -0.74080000
H        2.64440000      -0.70030000       2.12460000
H        0.82450000      -2.77390000       1.29910000
