22
Properties=species:S:1:pos:R:3 gdb_99257=T pbc="F F F"
C       -0.29850000       1.42520000      -0.10270000
C       -0.33570000      -0.10550000      -0.02350000
C        0.97430000      -0.66890000       0.53930000
C       -1.55550000      -0.55390000       0.80240000
N       -1.75440000      -1.99760000       0.83830000
C       -2.47980000      -2.65740000      -0.09400000
O       -3.04200000      -2.10820000      -1.03210000
C       -2.59480000      -4.17790000       0.07110000
O       -3.36370000      -4.70820000      -0.96600000
H        0.53840000       1.76540000      -0.72020000
H       -1.22030000       1.82550000      -0.53720000
H       -0.17630000       1.87030000       0.89250000
H       -0.47940000      -0.50120000      -1.03680000
H        1.15940000      -0.29670000       1.55500000
H        0.95970000      -1.76290000       0.57690000
H        1.82690000      -0.37340000      -0.08000000
H       -1.46030000      -0.19890000       1.83560000
H       -2.46390000      -0.11770000       0.37920000
H       -1.30060000      -2.53410000       1.55970000
H       -1.58260000      -4.61430000       0.07890000
H       -3.04440000      -4.39580000       1.05370000
H       -3.61810000      -3.93180000      -1.49480000
