17
Properties=species:S:1:pos:R:3 gdb_33770=T pbc="F F F"
N        0.02420000      -1.16110000      -0.05320000
C       -0.00230000      -0.00560000      -0.02600000
C       -0.02700000       1.44770000       0.03130000
C       -0.25300000       2.12330000       1.41780000
C        0.71600000       3.19080000       0.84290000
N        1.32260000       2.13620000      -0.07150000
C       -0.07060000       4.13570000      -0.04030000
C       -0.86620000       3.57910000      -0.95120000
C       -0.93340000       2.07200000      -1.05420000
H       -1.26660000       2.42290000       1.69350000
H        0.20330000       1.53070000       2.21390000
H        1.42000000       3.68720000       1.51020000
H        1.97320000       1.58620000       0.49140000
H        0.02040000       5.20820000       0.08860000
H       -1.47070000       4.16520000      -1.63630000
H       -0.59310000       1.73540000      -2.04050000
H       -1.96330000       1.71290000      -0.93360000
