14
Properties=species:S:1:pos:R:3 gdb_42800=T pbc="F F F"
O        0.03410000       0.02460000      -0.11860000
C        0.00950000       1.20340000      -0.06500000
C       -1.07920000       2.36430000       0.07420000
C       -0.01800000       2.98510000       1.04270000
C        1.02990000       2.41350000       0.03790000
C        0.60180000       3.11470000      -1.24700000
C       -0.75310000       3.07350000      -1.21500000
C        1.46390000       3.56370000      -2.27000000
N        2.19390000       3.93930000      -3.08820000
H       -2.11480000       2.18600000       0.34890000
H       -0.04080000       4.07390000       1.12850000
H        0.01040000       2.50230000       2.02340000
H        2.08730000       2.30060000       0.25850000
H       -1.45030000       3.36540000      -1.98640000
