27
Properties=species:S:1:pos:R:3 gdb_118145=T pbc="F F F"
C       -0.04940000       1.59050000      -0.15370000
C        0.01970000       0.07060000       0.02210000
C       -1.36480000      -0.58910000       0.03760000
C       -1.36010000      -2.12660000       0.12920000
C       -0.77670000      -2.63500000       1.45610000
C       -2.76720000      -2.68450000      -0.08660000
C       -3.46240000      -2.49510000      -1.46720000
C       -4.03730000      -3.93030000      -1.33470000
C       -2.96130000      -4.22040000      -0.25470000
H        0.94930000       2.03860000      -0.16500000
H       -0.54590000       1.85880000      -1.09310000
H       -0.61410000       2.05770000       0.66110000
H        0.61740000      -0.36470000      -0.79030000
H        0.55620000      -0.15920000       0.95040000
H       -1.95050000      -0.18290000       0.87550000
H       -1.90010000      -0.29300000      -0.87450000
H       -0.72870000      -2.50890000      -0.68870000
H       -0.80770000      -3.72810000       1.50640000
H        0.26500000      -2.33010000       1.59020000
H       -1.35000000      -2.24700000       2.30710000
H       -3.42780000      -2.31730000       0.71030000
H       -4.16920000      -1.66930000      -1.58000000
H       -2.72360000      -2.43090000      -2.27380000
H       -5.04550000      -3.92490000      -0.91000000
H       -4.04370000      -4.55970000      -2.22780000
H       -2.06920000      -4.68440000      -0.68990000
H       -3.25980000      -4.80120000       0.62160000
