17
Properties=species:S:1:pos:R:3 gdb_72107=T pbc="F F F"
O       -0.09400000       1.38500000      -0.07570000
C        0.02140000       0.00310000       0.00440000
C        1.19180000      -0.73780000      -0.62270000
C        0.94470000      -2.14800000      -0.05240000
O        0.53630000      -1.93560000       1.29810000
C       -0.32200000      -0.81590000       1.22730000
C       -1.24880000      -0.81490000       0.02880000
C       -1.30850000      -2.08890000      -0.79490000
O       -0.06530000      -2.80510000      -0.77520000
H        0.64140000       1.77630000       0.41060000
H        1.19040000      -0.74780000      -1.71480000
H        2.14400000      -0.32700000      -0.26660000
H        1.80610000      -2.81500000      -0.04720000
H       -0.60170000      -0.41020000       2.19100000
H       -2.17270000      -0.25340000       0.11870000
H       -2.08210000      -2.75670000      -0.39560000
H       -1.56820000      -1.86660000      -1.83910000
