19
Properties=species:S:1:pos:R:3 gdb_65589=T pbc="F F F"
O       -0.38410000       0.91350000       0.49020000
C        0.04490000      -0.33900000      -0.06450000
C        0.83960000      -1.18020000       0.98400000
C       -0.19910000      -1.99450000       1.73660000
C       -1.42370000      -1.28560000       2.26400000
C       -1.47940000      -1.98770000       0.92880000
C       -1.24710000      -1.16350000      -0.32730000
C        0.82730000      -0.09270000      -1.27910000
C        1.48970000       0.13040000      -2.25760000
H        0.40020000       1.46070000       0.60850000
H        1.53220000      -1.85070000       0.46460000
H        1.43900000      -0.51770000       1.61870000
H        0.13700000      -2.89150000       2.24500000
H       -1.94440000      -1.76260000       3.08760000
H       -1.43290000      -0.20280000       2.28080000
H       -2.08830000      -2.88040000       0.83890000
H       -2.06250000      -0.47920000      -0.57750000
H       -1.08730000      -1.82640000      -1.18290000
H        2.06490000       0.32460000      -3.12910000
