17
Properties=species:S:1:pos:R:3 gdb_71174=T pbc="F F F"
C       -0.06900000       1.53700000       0.02710000
C       -0.03730000       0.03900000       0.00200000
C        0.41450000      -0.77300000      -1.23180000
C       -0.57450000      -1.80510000      -0.72710000
C       -0.54490000      -1.81280000       0.76440000
C        0.45940000      -0.77390000       1.23970000
C        1.87260000      -1.10540000       1.36760000
N        2.99700000      -1.36460000       1.44130000
N       -1.37190000      -0.78820000       0.04440000
H        0.95020000       1.93970000       0.02100000
H       -0.59660000       1.92550000      -0.84910000
H       -0.57960000       1.90420000       0.92280000
H        0.05440000      -0.30430000      -2.15130000
H        1.47220000      -1.03290000      -1.33070000
H       -1.06760000      -2.59250000      -1.28470000
H       -1.00100000      -2.59290000       1.36140000
H        0.10280000      -0.29990000       2.15900000
