15
Properties=species:S:1:pos:R:3 gdb_104967=T pbc="F F F"
O        0.93370000       0.76130000      -0.04120000
C        0.23430000      -0.43920000      -0.28640000
C       -1.24910000      -0.32860000       0.02240000
C       -1.97620000      -1.51920000       0.57440000
N       -1.74320000      -0.35990000       1.41820000
C       -1.97400000       0.65980000      -0.82770000
O       -1.43990000       1.30640000      -1.70010000
C       -3.41700000       0.83170000      -0.56260000
N       -4.55610000       0.95860000      -0.41270000
H        0.65500000       1.38730000      -0.72000000
H        0.35990000      -0.78040000      -1.32410000
H        0.67440000      -1.20050000       0.36720000
H       -3.01480000      -1.69710000       0.31200000
H       -1.37450000      -2.41510000       0.70910000
H       -0.95230000      -0.49390000       2.04450000
