16
Properties=species:S:1:pos:R:3 gdb_133628=T pbc="F F F"
F       -0.02850000       0.08600000      -0.06450000
C       -0.03000000       1.42060000       0.01150000
F        1.24730000       1.83130000      -0.09470000
F       -0.68830000       1.88700000      -1.06380000
C       -0.66570000       1.92470000       1.29300000
C        0.07300000       1.48660000       2.54920000
C       -0.54060000       1.88680000       3.90900000
C       -0.52440000       0.37130000       4.19310000
O       -0.09630000       0.08250000       2.84480000
H       -0.67720000       3.01850000       1.23830000
H       -1.70000000       1.57010000       1.32020000
H        1.13770000       1.73810000       2.45580000
H        0.07690000       2.51470000       4.55220000
H       -1.54040000       2.32010000       3.83420000
H        0.21870000       0.04950000       4.93360000
H       -1.48580000      -0.09860000       4.42770000
