20
Properties=species:S:1:pos:R:3 gdb_113062=T pbc="F F F"
C       -0.13460000       1.55310000      -0.06340000
C        0.25460000       0.07420000       0.01700000
N        0.76360000      -0.45570000      -1.22870000
C        0.15640000      -0.64140000      -2.55610000
C        1.55140000      -1.12760000      -3.05150000
C        2.32030000      -0.29500000      -4.07660000
O        3.68330000      -0.66340000      -4.08330000
C        2.02040000      -0.83400000      -1.61480000
O        3.08960000      -0.84520000      -1.04670000
H        0.72710000       2.16750000      -0.33970000
H       -0.92510000       1.71820000      -0.80250000
H       -0.50740000       1.89850000       0.90560000
H        1.05060000      -0.07300000       0.75340000
H       -0.60620000      -0.52570000       0.34090000
H       -0.64430000      -1.38780000      -2.58130000
H       -0.19660000       0.28880000      -3.01540000
H        1.59290000      -2.18780000      -3.31160000
H        1.93930000      -0.46380000      -5.08960000
H        2.18600000       0.77710000      -3.84990000
H        3.98510000      -0.64770000      -3.16410000
