17
Properties=species:S:1:pos:R:3 gdb_36258=T pbc="F F F"
N        0.01830000      -1.23600000       0.25000000
C       -0.01720000      -0.08730000       0.13190000
C       -0.05550000       1.36450000      -0.03790000
C        1.33880000       1.99360000      -0.02410000
C        1.49770000       3.50480000       0.11830000
C        1.26010000       3.39030000       1.65660000
C        2.56140000       4.10560000       2.02590000
C        2.88000000       3.25450000       0.79610000
N        2.02790000       2.07010000       1.33510000
H       -0.54470000       1.58720000      -0.99400000
H       -0.68540000       1.79460000       0.74770000
H        1.97670000       1.50880000      -0.77200000
H        1.21070000       4.32030000      -0.55450000
H        0.31250000       3.36890000       2.19590000
H        2.58300000       5.19020000       1.89690000
H        3.03220000       3.79460000       2.96160000
H        3.83110000       3.05780000       0.29890000
