18
Properties=species:S:1:pos:R:3 gdb_26131=T pbc="F F F"
C        0.38760000       1.13290000      -0.55880000
C        0.02660000      -0.10180000       0.26390000
O        0.25500000       0.11040000       1.66670000
C       -1.38290000      -0.57630000       0.04640000
C       -2.27250000      -0.51780000      -1.01000000
O       -2.01620000       0.11050000      -2.20070000
C       -3.45020000      -1.22650000      -0.64640000
C       -3.24870000      -1.70720000       0.63090000
N       -2.00540000      -1.32140000       1.02990000
H        1.41990000       1.42460000      -0.34810000
H        0.27600000       0.93630000      -1.62720000
H       -0.27490000       1.96920000      -0.30750000
H        0.73540000      -0.90530000       0.01860000
H       -0.27090000       0.87840000       1.92090000
H       -2.79050000       0.01740000      -2.76220000
H       -4.33520000      -1.36280000      -1.25050000
H       -3.89730000      -2.27450000       1.27840000
H       -1.57940000      -1.47040000       1.92850000
