19
Properties=species:S:1:pos:R:3 gdb_116026=T pbc="F F F"
O        0.14950000       1.38490000      -0.03030000
C        0.07830000      -0.02110000      -0.00450000
C       -1.36610000      -0.54760000       0.03500000
C       -1.44600000      -2.07160000      -0.14300000
C       -2.89130000      -2.58000000      -0.08760000
C       -3.64210000      -2.00700000       1.07930000
C       -3.25680000      -0.90060000       1.72910000
C       -2.08150000      -0.11240000       1.31490000
O       -1.72620000       0.86640000       1.95550000
H       -0.31410000       1.67240000       0.76960000
H        0.56630000      -0.38370000      -0.91660000
H        0.63410000      -0.44370000       0.85020000
H       -1.91320000      -0.06390000      -0.78990000
H       -0.97720000      -2.36030000      -1.08960000
H       -0.86890000      -2.55580000       0.65570000
H       -3.42590000      -2.31570000      -1.01350000
H       -2.91580000      -3.67490000      -0.04060000
H       -4.54420000      -2.52710000       1.39470000
H       -3.80360000      -0.51340000       2.58310000
