21
Properties=species:S:1:pos:R:3 gdb_84108=T pbc="F F F"
C       -0.20700000       1.58870000       0.04810000
C        0.01050000       0.07120000      -0.02020000
C        0.83280000      -0.40910000      -1.19900000
C        1.81970000      -1.24260000      -0.84740000
C        2.79790000      -1.93060000      -1.74640000
C        1.86270000      -1.40130000       0.64110000
C        2.19260000      -0.12720000       1.41660000
C        0.75930000      -0.52790000       1.17900000
O       -0.00090000      -0.97190000       2.26430000
H        0.74510000       2.12670000       0.09220000
H       -0.75490000       1.94870000      -0.82880000
H       -0.79220000       1.85940000       0.93450000
H       -0.98030000      -0.40820000      -0.04430000
H        0.62080000      -0.09610000      -2.21660000
H        2.61950000      -1.68660000      -2.79720000
H        3.82980000      -1.65220000      -1.49790000
H        2.73540000      -3.02070000      -1.63580000
H        2.10520000      -2.35590000       1.09560000
H        2.54770000      -0.26350000       2.43310000
H        2.63010000       0.70630000       0.87640000
H       -0.18810000      -0.21230000       2.82650000
