16
Properties=species:S:1:pos:R:3 gdb_29864=T pbc="F F F"
C       -0.01540000       1.48740000       0.02240000
N        0.00020000       0.03040000       0.00250000
C       -0.03170000      -0.66210000      -1.16390000
C       -0.01930000      -2.02790000      -1.20970000
C        0.02870000      -2.80120000      -0.00310000
O        0.04520000      -4.03760000       0.10980000
C        0.06170000      -2.00480000       1.22880000
O        0.10660000      -2.72990000       2.35480000
C        0.04710000      -0.64820000       1.20640000
H        0.88480000       1.87580000       0.50950000
H       -0.04930000       1.86220000      -1.00070000
H       -0.89400000       1.85650000       0.56140000
H       -0.06780000      -0.05700000      -2.06170000
H       -0.04580000      -2.53600000      -2.16530000
H        0.10430000      -3.65000000       2.00390000
H        0.07080000      -0.04310000       2.10280000
