21
Properties=species:S:1:pos:R:3 gdb_111113=T pbc="F F F"
C       -0.01070000       1.57230000       0.08820000
C        0.00220000       0.04120000       0.17630000
C       -1.39830000      -0.55740000       0.07090000
C       -2.06550000      -0.62050000      -1.34150000
C       -1.24050000      -1.93520000      -1.57560000
C       -1.51170000      -2.11000000      -0.03860000
C       -3.04360000      -2.32410000      -0.09770000
O       -3.85840000      -1.22800000       0.34980000
C       -3.43830000      -1.26280000      -1.02440000
H        0.99670000       1.98380000       0.20460000
H       -0.39960000       1.91390000      -0.87700000
H       -0.64250000       2.00700000       0.87040000
H        0.67850000      -0.35890000      -0.58680000
H        0.42790000      -0.26010000       1.14270000
H       -2.03100000      -0.11660000       0.84250000
H       -2.04490000       0.21650000      -2.03930000
H       -1.67200000      -2.68320000      -2.24830000
H       -0.19340000      -1.77160000      -1.83280000
H       -0.92400000      -2.78120000       0.58850000
H       -3.49330000      -3.30940000      -0.03790000
H       -4.22910000      -1.33220000      -1.76370000
