15
Properties=species:S:1:pos:R:3 gdb_3716=T pbc="F F F"
C       -0.14630000       1.56340000       0.00000000
C        0.05640000       0.03860000      -0.03270000
C        0.76240000      -0.49400000       1.18030000
C        2.08820000      -0.86280000       1.30320000
N        2.26940000      -1.25210000       2.58970000
N        1.14890000      -1.16930000       3.32950000
C        0.23660000      -0.70880000       2.47850000
H        0.81500000       2.08380000       0.05540000
H       -0.67140000       1.90910000      -0.89630000
H       -0.73390000       1.86250000       0.87370000
H       -0.92070000      -0.45000000      -0.13150000
H        0.62230000      -0.23200000      -0.93150000
H        2.89370000      -0.87970000       0.58540000
H        3.11250000      -1.59280000       3.01880000
H       -0.77660000      -0.54830000       2.81970000
