18
Properties=species:S:1:pos:R:3 gdb_93170=T pbc="F F F"
O        0.10380000       1.40600000       0.33720000
C        0.06430000       0.00790000       0.11900000
C       -1.35150000      -0.59960000       0.30590000
N       -2.36970000      -0.48050000      -0.72460000
C       -2.34800000       0.33130000      -1.67670000
O       -1.42120000       1.34040000      -1.89700000
C       -0.41780000       1.03220000      -2.87250000
C        0.54900000      -0.02070000      -2.41150000
C        0.74100000      -0.45470000      -1.16520000
H       -0.47120000       1.79940000      -0.33330000
H        0.64910000      -0.40740000       0.94830000
H       -1.24090000      -1.67520000       0.49190000
H       -1.76720000      -0.17340000       1.22800000
H       -3.14460000       0.32480000      -2.42380000
H       -0.89930000       0.71630000      -3.81010000
H        0.09010000       1.98190000      -3.07600000
H        1.14600000      -0.45140000      -3.21310000
H        1.47480000      -1.24610000      -1.02990000
