18
Properties=species:S:1:pos:R:3 gdb_47718=T pbc="F F F"
N       -0.06180000       1.25510000       0.31800000
C       -0.03360000       0.03050000      -0.00380000
O        1.14920000      -0.61150000      -0.25230000
C        1.13010000      -1.85640000      -0.95740000
O        0.11750000      -2.70690000      -0.54740000
C       -1.14550000      -2.10180000      -0.80370000
C       -1.27050000      -0.81300000      -0.01910000
C       -2.08690000      -0.80860000       1.26690000
C       -2.60890000      -0.12200000       0.04100000
H        0.88340000       1.64040000       0.32730000
H        1.04710000      -1.63690000      -2.03570000
H        2.08600000      -2.33520000      -0.73980000
H       -1.24510000      -1.91320000      -1.88580000
H       -1.91260000      -2.82230000      -0.51040000
H       -2.53390000      -1.74930000       1.57190000
H       -1.71790000      -0.18640000       2.07300000
H       -2.58830000       0.96030000       0.01950000
H       -3.42730000      -0.58690000      -0.50020000
