16
Properties=species:S:1:pos:R:3 gdb_27273=T pbc="F F F"
O        0.07730000       1.34540000       0.21430000
C        0.05690000       0.00380000      -0.00720000
C        0.07160000      -0.79080000      -1.12340000
C        0.13270000      -0.77370000      -2.61780000
O       -0.02270000      -2.14930000      -2.99610000
C        0.06590000      -3.03610000      -1.86860000
C        0.03160000      -2.13790000      -0.67320000
C       -0.00640000      -2.14840000       0.69270000
N        0.01100000      -0.81500000       1.08970000
H        0.06950000       1.79470000      -0.63550000
H       -0.67160000      -0.19770000      -3.09800000
H        1.08970000      -0.38920000      -3.00790000
H       -0.77510000      -3.73990000      -1.92240000
H        0.99490000      -3.62410000      -1.93230000
H       -0.04300000      -2.93970000       1.42210000
H       -0.03410000      -0.47650000       2.03540000
