15
Properties=species:S:1:pos:R:3 gdb_45336=T pbc="F F F"
N       -0.13820000       1.19740000      -0.61030000
C       -0.06670000       0.06020000      -0.09920000
O        0.97420000      -0.57780000       0.56090000
C        0.21120000      -1.82210000       0.65000000
C       -0.15730000      -2.18460000       2.09110000
N       -1.41540000      -1.49120000       2.29430000
C       -2.01860000      -0.97010000       1.17800000
O       -3.11910000      -0.47910000       1.12160000
C       -1.01100000      -1.12310000       0.02500000
H        0.73250000       1.71890000      -0.49700000
H        0.71320000      -2.61820000       0.10070000
H       -0.26540000      -3.27160000       2.20470000
H        0.62260000      -1.84200000       2.77990000
H       -1.91800000      -1.50790000       3.16770000
H       -1.47650000      -1.48700000      -0.88800000
