18
Properties=species:S:1:pos:R:3 gdb_17390=T pbc="F F F"
C       -0.16280000       1.37640000       0.09580000
C        1.13470000       0.69230000      -0.19610000
O        1.76620000       0.26460000       1.01360000
C        0.66460000      -0.63920000       1.28540000
C        0.96750000      -2.14940000       1.39280000
C       -0.08190000      -2.22400000       2.53790000
C        0.03450000      -0.68070000       2.69140000
C       -0.09550000      -0.13910000       0.05790000
H       -0.28780000       1.90260000       1.03820000
H       -0.66220000       1.82740000      -0.75660000
H        1.75580000       0.84440000      -1.07080000
H        0.81670000      -2.76190000       0.50020000
H        1.98580000      -2.29970000       1.76170000
H       -1.06730000      -2.52840000       2.17600000
H        0.17250000      -2.83280000       3.40710000
H        0.77700000      -0.40450000       3.44550000
H       -0.87540000      -0.09780000       2.85490000
H       -0.69080000      -0.74870000      -0.60870000
