18
Properties=species:S:1:pos:R:3 gdb_20263=T pbc="F F F"
C       -0.06290000       1.55620000       0.05280000
C        1.49020000       1.45430000       0.01550000
C        1.83570000       0.70130000       1.31400000
C        2.19870000      -0.73540000       0.98750000
C        2.34730000      -0.85800000      -0.51880000
C        1.31160000       0.19060000      -0.89740000
C        0.03090000       0.00340000      -0.01040000
C        0.75850000      -0.36940000       1.29490000
H       -0.52930000       2.00970000       0.93240000
H       -0.47980000       1.99190000      -0.86040000
H        2.12410000       2.29400000      -0.27100000
H        2.16150000       1.20210000       2.21590000
H        2.78010000      -1.33260000       1.68000000
H        3.35440000      -0.60300000      -0.86890000
H        2.09280000      -1.85710000      -0.89130000
H        1.13090000       0.39110000      -1.95260000
H       -0.80730000      -0.62030000      -0.32290000
H        0.23990000      -0.70810000       2.18190000
