16
Properties=species:S:1:pos:R:3 gdb_52297=T pbc="F F F"
O        0.43140000       0.15570000       0.55450000
C        0.52430000       1.34240000       0.61220000
O        0.72820000       2.10090000      -0.49220000
C        0.84390000       3.51380000      -0.32420000
C        2.30630000       3.92500000      -0.21910000
C        2.61000000       5.43980000      -0.01280000
N        3.24290000       5.07100000       1.25680000
C        2.95800000       3.73090000       1.17840000
O        3.11940000       2.80820000       1.93140000
H        0.44440000       1.94030000       1.53740000
H        0.37860000       3.96080000      -1.20750000
H        0.28070000       3.84410000       0.55900000
H        2.88040000       3.46390000      -1.02570000
H        3.28820000       5.88650000      -0.74520000
H        1.72330000       6.07400000       0.09880000
H        3.63010000       5.62870000       2.00370000
