22
Properties=species:S:1:pos:R:3 gdb_63586=T pbc="F F F"
C       -0.08100000       1.52740000       0.00760000
C       -0.04950000       0.01260000       0.07430000
C       -1.26230000      -0.65180000      -0.54890000
N        1.28360000      -0.58900000      -0.16650000
C        0.68110000      -0.67390000       1.17720000
C        1.39790000       0.04110000       2.32360000
C        1.73210000      -1.12450000       3.25940000
O        0.62780000      -2.01430000       3.13300000
C        0.25340000      -2.03060000       1.76600000
H        0.83600000       1.96130000       0.40980000
H       -0.18320000       1.86130000      -1.03110000
H       -0.93180000       1.92610000       0.57190000
H       -1.36050000      -0.35390000      -1.59920000
H       -1.19910000      -1.74330000      -0.51650000
H       -2.18460000      -0.35430000      -0.03690000
H        1.17810000      -1.48090000      -0.64880000
H        2.27800000       0.58230000       1.97300000
H        0.72530000       0.74480000       2.82550000
H        2.66830000      -1.61760000       2.94970000
H        1.81800000      -0.84850000       4.31320000
H       -0.82460000      -2.21340000       1.72080000
H        0.76170000      -2.85200000       1.23160000
