19
Properties=species:S:1:pos:R:3 gdb_53443=T pbc="F F F"
C        0.00820000       1.47800000       0.01720000
C        0.00050000       0.02260000       0.01420000
C        0.00410000      -1.18050000       0.02340000
C       -0.02230000      -2.64290000      -0.00490000
O        0.79380000      -3.12860000       1.05670000
C        0.63670000      -4.52260000       1.26760000
C       -0.77220000      -4.85040000       1.76510000
C       -1.78660000      -4.15690000       0.89530000
C       -1.44450000      -3.16870000       0.07450000
H        0.67910000       1.86350000       0.79280000
H        0.34930000       1.87790000      -0.94400000
H       -0.99080000       1.88300000       0.21200000
H        0.41380000      -2.97450000      -0.96810000
H        0.83860000      -5.07520000       0.33490000
H        1.39970000      -4.80390000       1.99850000
H       -0.92980000      -5.93640000       1.74790000
H       -0.88850000      -4.53740000       2.81160000
H       -2.81930000      -4.49240000       0.94490000
H       -2.16540000      -2.68600000      -0.57770000
