20
Properties=species:S:1:pos:R:3 gdb_69822=T pbc="F F F"
C        0.03620000       1.48070000      -0.05230000
C       -0.02500000      -0.02140000       0.04780000
C       -0.88970000      -0.67840000       1.08930000
C        0.62690000      -0.74020000       1.21360000
C        1.35850000      -2.01180000       0.89270000
N        0.60410000      -3.27250000       0.78960000
C        1.13660000      -2.64430000      -0.43720000
C        0.11670000      -1.98510000      -1.34920000
O        0.11160000      -0.56550000      -1.24030000
H        0.97490000       1.79430000      -0.52020000
H       -0.79020000       1.86050000      -0.66190000
H       -0.02790000       1.93670000       0.93940000
H       -1.42730000      -0.03550000       1.77750000
H       -1.38900000      -1.61340000       0.86790000
H        1.09030000      -0.12700000       1.97980000
H        2.36630000      -2.06590000       1.29620000
H        1.19250000      -4.05340000       1.06690000
H        1.98710000      -3.11480000      -0.92240000
H        0.35340000      -2.18040000      -2.39830000
H       -0.88220000      -2.39520000      -1.14630000
