15
Properties=species:S:1:pos:R:3 gdb_44343=T pbc="F F F"
O       -0.02670000       0.05200000      -0.04910000
C        0.03860000       1.24150000      -0.00890000
O       -1.06190000       2.07600000       0.00170000
C       -0.44720000       3.37200000       0.05510000
C        0.75340000       3.34380000      -0.95880000
C        1.56460000       4.56200000      -0.54050000
C        1.54300000       4.51720000       0.79390000
C        0.72000000       3.27450000       1.10310000
C        1.20830000       2.20740000       0.04280000
H       -1.19770000       4.16060000       0.06950000
H        0.58950000       3.12790000      -2.01390000
H        2.00090000       5.29210000      -1.20630000
H        1.95670000       5.20050000       1.52100000
H        0.52230000       2.98850000       2.13550000
H        2.21120000       1.78670000       0.04490000
