14
Properties=species:S:1:pos:R:3 gdb_4300=T pbc="F F F"
C        0.02680000       1.50260000       0.01530000
C       -0.02010000       0.00260000       0.01000000
C       -1.18180000      -0.69390000      -0.15090000
C       -1.20220000      -2.13960000      -0.15130000
O       -2.15490000      -2.88330000      -0.28290000
N        0.10000000      -2.67060000       0.03100000
C        1.20600000      -1.90580000       0.18370000
N        1.20800000      -0.61170000       0.18190000
H        0.69080000       1.85860000      -0.77950000
H       -0.96320000       1.94130000      -0.12270000
H        0.44850000       1.85940000       0.96080000
H       -2.13220000      -0.19260000      -0.28430000
H        0.16210000      -3.68030000       0.04140000
H        2.14180000      -2.44480000       0.31490000
