13
Properties=species:S:1:pos:R:3 gdb_50797=T pbc="F F F"
N        0.08520000       1.47610000       0.00770000
C        0.08210000       0.20080000       0.00090000
N       -1.09340000      -0.55810000       0.00720000
C       -2.41300000      -0.11920000       0.02400000
O       -2.79320000       1.01780000       0.03600000
C        1.26920000      -0.61700000      -0.01440000
C        2.26960000      -1.29540000      -0.02720000
C        3.48320000      -2.08130000      -0.04250000
O        3.49860000      -3.28920000      -0.04860000
H        1.04520000       1.81790000       0.00100000
H       -0.96300000      -1.55860000      -0.00050000
H       -3.09280000      -0.99520000       0.02490000
H        4.41450000      -1.48240000      -0.04830000
