19
Properties=species:S:1:pos:R:3 gdb_41929=T pbc="F F F"
C       -0.03060000       1.53580000      -0.03710000
C        1.48030000       1.88650000       0.03370000
C        2.12710000       0.64570000       0.66150000
O        3.42410000       0.39400000       0.13660000
C        3.96450000      -0.82160000       0.62190000
C        3.00320000      -1.98370000       0.58690000
C        1.68480000      -1.81740000       0.40900000
C        1.16330000      -0.47040000       0.31490000
C       -0.02980000       0.02320000      -0.03670000
H       -0.57640000       1.93400000       0.83060000
H       -0.51960000       1.95800000      -0.92220000
H        1.88780000       1.99200000      -0.97660000
H        1.68820000       2.80850000       0.58120000
H        2.20180000       0.74280000       1.76070000
H        4.83440000      -1.03760000      -0.00970000
H        4.34960000      -0.69400000       1.65220000
H        3.43790000      -2.97300000       0.69990000
H        1.01350000      -2.66790000       0.32880000
H       -0.90310000      -0.56740000      -0.29380000
