21
Properties=species:S:1:pos:R:3 gdb_118626=T pbc="F F F"
C       -0.02010000       1.66490000      -0.00650000
C       -0.01840000       0.13460000       0.02960000
C        0.67030000      -0.48360000      -1.19330000
C        0.66720000      -2.02690000      -1.19970000
C        1.24580000      -2.57020000      -2.52820000
C        1.03140000      -4.05900000      -2.71030000
O        0.60580000      -4.56100000      -3.71790000
C        1.49830000      -2.53910000      -0.03640000
O        1.10360000      -3.24550000       0.85360000
H        1.00040000       2.06300000      -0.02670000
H       -0.53870000       2.03970000      -0.89590000
H       -0.52220000       2.08110000       0.87180000
H        0.47320000      -0.21070000       0.94780000
H       -1.05000000      -0.23550000       0.08500000
H        0.17560000      -0.13490000      -2.10810000
H        1.70810000      -0.12570000      -1.25610000
H       -0.35570000      -2.39440000      -1.05970000
H        0.80850000      -2.05260000      -3.38650000
H        2.33120000      -2.38470000      -2.55100000
H        1.30150000      -4.68450000      -1.82930000
H        2.56070000      -2.19070000      -0.06630000
