15
Properties=species:S:1:pos:R:3 gdb_125280=T pbc="F F F"
C        0.07170000       1.46920000       0.02960000
C       -0.07420000      -0.00880000      -0.00040000
C       -1.16750000      -0.81600000      -0.16130000
C       -0.64830000      -2.14800000      -0.09550000
C        0.71490000      -2.03810000       0.09940000
O        1.08940000      -0.72970000       0.16100000
C        1.23350000      -3.33990000       0.16570000
N        0.23490000      -4.21510000       0.01800000
N       -0.90010000      -3.48000000      -0.13970000
H        0.74120000       1.81920000      -0.76420000
H       -0.90250000       1.94320000      -0.10700000
H        0.49070000       1.80880000       0.98360000
H       -2.18100000      -0.47710000      -0.30330000
H        2.24260000      -3.69270000       0.30720000
H       -1.77030000      -3.96510000      -0.26500000
