20
Properties=species:S:1:pos:R:3 gdb_107266=T pbc="F F F"
C       -0.32950000       1.46820000      -0.06170000
C        0.19680000       0.03020000       0.04390000
C        0.85300000      -0.45980000      -1.21830000
N        0.06610000      -0.89630000      -2.40140000
C        0.93350000      -1.86350000      -1.67790000
C        2.40280000      -1.88770000      -2.15410000
C        2.55860000      -0.59870000      -2.99110000
C        2.30460000      -0.03030000      -1.57890000
O        3.05840000      -1.17600000      -1.03920000
H        0.47790000       2.17140000      -0.29120000
H       -1.07970000       1.55850000      -0.85410000
H       -0.79050000       1.78670000       0.87800000
H        0.92510000      -0.04300000       0.86120000
H       -0.62730000      -0.64640000       0.30560000
H       -0.89730000      -1.05050000      -2.10240000
H        0.49760000      -2.69710000      -1.13990000
H        2.86650000      -2.84140000      -2.40240000
H        3.59750000      -0.45350000      -3.28490000
H        1.85560000      -0.38660000      -3.79320000
H        2.66790000       0.93680000      -1.23190000
