15
Properties=species:S:1:pos:R:3 gdb_27382=T pbc="F F F"
N        0.16000000       1.34050000       0.14590000
C       -0.02590000      -0.02120000       0.03230000
C       -1.19380000      -0.69500000       0.01970000
C       -1.22400000      -2.15670000      -0.00430000
O       -2.26300000      -2.80770000      -0.00230000
C        0.10440000      -2.76710000      -0.03100000
C        1.22010000      -2.01020000      -0.04800000
N        2.52620000      -2.43720000      -0.16450000
O        1.18430000      -0.64780000      -0.00900000
H        0.99900000       1.68530000      -0.29920000
H       -0.65710000       1.89050000      -0.07190000
H       -2.13340000      -0.15740000       0.03880000
H        0.17820000      -3.84720000      -0.04840000
H        2.66530000      -3.41200000       0.05470000
H        3.20370000      -1.83180000       0.27770000
