21
Properties=species:S:1:pos:R:3 gdb_118557=T pbc="F F F"
C       -0.37720000       1.40850000       0.16680000
O        0.02500000       0.07750000      -0.08380000
C        0.69720000      -0.56690000       0.99540000
C        0.10340000      -1.96750000       1.16180000
C       -1.37100000      -1.95240000       1.57180000
O       -1.89890000      -3.25780000       1.74680000
C        2.21850000      -0.64120000       0.71980000
C        2.85220000       0.71710000       0.52300000
O        3.56080000       1.26020000       1.33330000
H        0.47370000       2.07310000       0.37660000
H       -0.88140000       1.76430000      -0.73520000
H       -1.07810000       1.47110000       1.01180000
H        0.53840000       0.00590000       1.92170000
H        0.21070000      -2.49980000       0.20670000
H        0.67640000      -2.52570000       1.91020000
H       -1.48360000      -1.45760000       2.54350000
H       -1.95190000      -1.37540000       0.83900000
H       -1.91590000      -3.68560000       0.88470000
H        2.71830000      -1.13570000       1.55770000
H        2.36500000      -1.23370000      -0.19220000
H        2.61510000       1.20750000      -0.44700000
