16
Properties=species:S:1:pos:R:3 gdb_69250=T pbc="F F F"
O        0.04960000       1.37250000      -0.11480000
C        0.06730000      -0.02140000      -0.05330000
C       -0.42960000      -0.71540000      -1.27700000
C       -1.28180000      -0.77040000      -0.01490000
C       -1.41960000      -2.00440000       0.80300000
O       -2.48390000      -2.53450000       1.05730000
N       -0.22950000      -2.51100000       1.31020000
C        0.98200000      -1.82590000       1.33060000
C        1.15730000      -0.64440000       0.72790000
H       -0.02440000       1.70510000       0.78710000
H       -0.82550000      -0.08460000      -2.06410000
H        0.08330000      -1.61160000      -1.60590000
H       -2.18490000      -0.17300000      -0.03940000
H       -0.34310000      -3.33280000       1.88450000
H        1.77760000      -2.33180000       1.86410000
H        2.11500000      -0.14050000       0.76370000
