22
Properties=species:S:1:pos:R:3 gdb_9769=T pbc="F F F"
C       -0.14570000       1.53720000       0.10970000
C        0.00580000       0.01700000      -0.02720000
C        0.77760000      -0.46680000      -1.26870000
C        2.23190000       0.03580000      -1.27890000
C        0.76040000      -2.02230000      -1.38340000
C        0.46590000      -2.29880000      -2.87860000
O        0.51820000      -1.04090000      -3.54200000
C        0.08920000      -0.07700000      -2.59690000
H        0.82190000       2.03860000       0.20540000
H       -0.66210000       1.97190000      -0.75300000
H       -0.73160000       1.78520000       1.00020000
H        0.49990000      -0.37760000       0.87030000
H       -0.99350000      -0.43760000      -0.04570000
H        2.78020000      -0.32920000      -0.40320000
H        2.74800000      -0.32030000      -2.17550000
H        2.28610000       1.12890000      -1.27800000
H        1.71550000      -2.45060000      -1.06850000
H       -0.01580000      -2.45670000      -0.74680000
H        1.19560000      -2.95720000      -3.35760000
H       -0.53080000      -2.75090000      -3.00140000
H       -1.00950000      -0.09960000      -2.48310000
H        0.37710000       0.90820000      -2.97320000
