19
Properties=species:S:1:pos:R:3 gdb_90049=T pbc="F F F"
O        0.12730000       1.47110000      -0.14790000
C        0.07240000       0.07030000      -0.01510000
C        0.22870000      -0.52770000       1.45870000
C       -1.30650000      -0.67050000       1.46840000
C       -2.62610000      -1.47580000       1.44680000
C       -2.77600000      -0.22470000       0.42000000
O       -3.85330000       0.05600000      -0.40010000
C       -2.15690000       0.64820000       1.52370000
C       -1.35710000      -0.59570000      -0.07330000
H        1.03780000       1.74800000      -0.00020000
H        0.74780000      -0.40870000      -0.73660000
H        0.76430000      -1.48110000       1.43450000
H        0.67480000       0.12270000       2.21730000
H       -2.58890000      -2.46910000       0.99330000
H       -3.27480000      -1.45210000       2.32890000
H       -4.54400000       0.46470000       0.13320000
H       -2.74640000       0.78150000       2.43670000
H       -1.66750000       1.56620000       1.20760000
H       -1.29290000      -1.55380000      -0.59630000
