21
Properties=species:S:1:pos:R:3 gdb_114775=T pbc="F F F"
C        0.14430000       1.65220000      -0.05920000
C        0.12600000       0.12190000      -0.10220000
C        0.65110000      -0.51390000       1.18700000
O       -0.10850000      -0.09590000       2.33930000
C       -0.73900000      -1.24180000       2.89080000
C       -1.80260000      -1.84270000       1.91720000
C       -0.70440000      -2.77260000       1.39470000
C        0.17410000      -2.46360000       2.60270000
C        0.62190000      -2.03690000       1.24220000
H        1.16210000       2.03090000       0.08840000
H       -0.23920000       2.08020000      -0.99040000
H       -0.47010000       2.01770000       0.76770000
H       -0.88870000      -0.23900000      -0.30090000
H        0.75180000      -0.23830000      -0.92990000
H        1.68600000      -0.16980000       1.34190000
H       -1.04780000      -1.01210000       3.90980000
H       -2.56390000      -2.41000000       2.46180000
H       -2.29160000      -1.14110000       1.23490000
H       -0.85680000      -3.72970000       0.90910000
H        0.70750000      -3.10130000       3.29390000
H        1.41790000      -2.58630000       0.75240000
