16
Properties=species:S:1:pos:R:3 gdb_22428=T pbc="F F F"
O       -0.12650000       1.33950000      -0.03540000
N        0.03370000      -0.05850000       0.06040000
C       -1.08440000      -0.64790000      -0.01840000
C       -2.55090000      -0.21950000      -0.06830000
C       -2.92430000      -1.69780000       0.08460000
O       -4.00120000      -2.03770000       0.86750000
C       -2.35130000      -2.50190000      -1.03730000
C       -1.41840000      -2.09050000       0.11810000
O       -0.76420000      -3.02290000       0.88780000
H        0.77690000       1.65350000       0.07750000
H       -2.81400000       0.36670000       0.81670000
H       -2.90290000       0.29510000      -0.96700000
H       -4.14800000      -2.98730000       0.80760000
H       -2.58120000      -3.56440000      -0.98430000
H       -2.24490000      -2.11300000      -2.04840000
H        0.01420000      -3.32770000       0.40680000
