19
Properties=species:S:1:pos:R:3 gdb_6707=T pbc="F F F"
C        0.06340000       1.50360000       0.10370000
C       -0.03130000      -0.02060000      -0.00100000
C       -1.46730000      -0.49780000      -0.18280000
O        0.70030000      -0.52450000      -1.12030000
C        2.09810000      -0.51140000      -0.98310000
C        2.65860000      -1.28750000      -2.18330000
C        4.11670000      -1.34130000      -2.17160000
N        5.27140000      -1.37370000      -2.14450000
H        1.09310000       1.84130000       0.25150000
H       -0.32550000       1.97070000      -0.80690000
H       -0.52520000       1.86180000       0.95400000
H        0.38500000      -0.46930000       0.91670000
H       -1.89370000      -0.07710000      -1.09890000
H       -1.50190000      -1.58770000      -0.25770000
H       -2.08690000      -0.18480000       0.66240000
H        2.50840000       0.50880000      -0.98200000
H        2.41110000      -0.99470000      -0.04410000
H        2.25530000      -2.30520000      -2.17770000
H        2.31960000      -0.81190000      -3.10950000
