16
Properties=species:S:1:pos:R:3 gdb_45021=T pbc="F F F"
N       -0.07030000       1.27930000       0.55020000
C       -0.01620000       0.09600000       0.07300000
N       -1.18060000      -0.58810000      -0.20600000
C       -1.24060000      -1.71780000      -1.08120000
C       -0.65580000      -1.66670000      -2.46590000
C        0.05380000      -2.43570000      -1.35250000
C        1.30100000      -1.87740000      -0.76090000
O        2.37160000      -2.44490000      -0.77830000
N        1.16000000      -0.62690000      -0.17600000
H        0.85530000       1.64970000       0.74980000
H       -1.98270000       0.02500000      -0.19340000
H       -2.12260000      -2.32760000      -0.91880000
H       -1.11180000      -2.25890000      -3.25100000
H       -0.21150000      -0.73250000      -2.79080000
H        0.06110000      -3.51610000      -1.41490000
H        2.01990000      -0.23080000       0.17570000
