21
Properties=species:S:1:pos:R:3 gdb_42060=T pbc="F F F"
C       -0.12870000       1.57550000       0.01220000
C        1.28260000       2.20670000       0.00030000
C        2.03390000       1.83730000       1.24420000
C        2.88000000       0.81380000       1.43450000
C        3.41820000      -0.20890000       0.53810000
C        3.02070000      -0.82170000      -0.60130000
C        1.84940000      -0.77550000      -1.47600000
C        0.56220000      -0.46700000      -1.25790000
C       -0.07590000       0.03040000       0.00440000
H       -0.67390000       1.91830000       0.89930000
H       -0.69310000       1.92550000      -0.85990000
H        1.82340000       1.87680000      -0.89030000
H        1.18760000       3.29650000      -0.06480000
H        1.81730000       2.45360000       2.11590000
H        3.30910000       0.74200000       2.43360000
H        4.37790000      -0.57560000       0.90240000
H        3.76390000      -1.51950000      -0.98720000
H        2.08390000      -1.11710000      -2.48390000
H       -0.10270000      -0.53170000      -2.11830000
H        0.47470000      -0.32140000       0.88050000
H       -1.09540000      -0.36380000       0.08400000
