19
Properties=species:S:1:pos:R:3 gdb_105462=T pbc="F F F"
O       -0.04460000       1.39370000      -0.69990000
C        0.01810000       0.09720000      -0.11990000
C       -1.36880000      -0.48980000       0.07510000
C       -1.97510000      -1.25460000      -1.08040000
C       -1.52980000      -1.98410000       0.16370000
N       -2.30570000       0.30020000       0.84270000
C       -1.97290000       0.40520000       2.26370000
C       -3.03320000       1.10770000       2.99340000
N       -3.85630000       1.67720000       3.56970000
H       -0.42320000       1.29890000      -1.58090000
H        0.63720000      -0.58890000      -0.71720000
H        0.52670000       0.23510000       0.84090000
H       -3.04070000      -1.13990000      -1.23590000
H       -1.38590000      -1.37830000      -1.98350000
H       -0.64010000      -2.60220000       0.11150000
H       -2.30540000      -2.35740000       0.82230000
H       -2.34910000       1.23300000       0.44190000
H       -1.88250000      -0.60660000       2.67490000
H       -1.02240000       0.92090000       2.47960000
