16
Properties=species:S:1:pos:R:3 gdb_124888=T pbc="F F F"
C       -0.30140000       1.33770000      -0.83360000
C       -0.05170000       0.06680000      -0.05030000
C        1.06270000      -0.83800000      -0.47070000
N        1.16810000      -0.06760000       0.77350000
C       -1.24260000      -0.54330000       0.58830000
N       -2.46690000      -0.31120000       0.19380000
O       -3.27330000      -1.05180000       1.01440000
N       -2.54020000      -1.74830000       1.93400000
C       -1.29700000      -1.44840000       1.69000000
H        0.62570000       1.68930000      -1.29640000
H       -1.04010000       1.16950000      -1.62180000
H       -0.68840000       2.12740000      -0.18210000
H        0.97160000      -1.91260000      -0.34040000
H        1.64720000      -0.53310000      -1.33490000
H        1.76230000       0.74690000       0.63970000
H       -0.48770000      -1.84610000       2.28020000
