20
Properties=species:S:1:pos:R:3 gdb_26665=T pbc="F F F"
C       -0.01320000       1.53870000       0.12810000
C        0.01230000       0.05300000       0.01270000
C        0.00290000      -0.74800000      -1.11200000
N       -0.03410000      -0.23370000      -2.44620000
C        0.03460000      -2.11880000      -0.68900000
C        0.03510000      -3.32560000      -1.57400000
C        0.06360000      -2.10480000       0.68990000
N        0.10030000      -3.11560000       1.68330000
N        0.05340000      -0.78830000       1.09630000
H        0.90400000       1.94210000       0.57680000
H       -0.11330000       1.96070000      -0.87420000
H       -0.85530000       1.89380000       0.73570000
H        0.83530000      -0.42560000      -2.93690000
H       -0.76590000      -0.68530000      -2.98730000
H        0.87930000      -3.32290000      -2.27530000
H        0.10310000      -4.24430000      -0.98280000
H       -0.87650000      -3.39730000      -2.18180000
H        0.92120000      -3.70560000       1.59420000
H       -0.71090000      -3.72370000       1.63630000
H        0.06930000      -0.51720000       2.06460000
