23
Properties=species:S:1:pos:R:3 gdb_75365=T pbc="F F F"
C       -0.03100000       1.52110000       0.03580000
C        0.01470000       0.02190000      -0.05610000
C        0.01720000      -0.64020000      -1.21660000
C        0.03780000      -2.14660000      -1.30530000
C       -0.08520000      -2.80590000       0.08280000
C       -1.49620000      -2.59410000       0.70120000
C       -1.39030000      -1.30070000       1.56610000
C        0.02770000      -0.75530000       1.25290000
C        0.83030000      -2.05550000       1.06880000
H        0.85640000       1.91400000       0.54950000
H       -0.08770000       1.98810000      -0.95150000
H       -0.89810000       1.85640000       0.62060000
H        0.00680000      -0.08830000      -2.15480000
H       -0.77770000      -2.49470000      -1.95520000
H        0.96450000      -2.47580000      -1.80000000
H        0.15930000      -3.86900000       0.00220000
H       -2.26220000      -2.50730000      -0.07510000
H       -1.77460000      -3.44980000       1.32370000
H       -2.17410000      -0.57460000       1.33370000
H       -1.47450000      -1.53760000       2.63240000
H        0.40980000      -0.12440000       2.06130000
H        0.91500000      -2.59720000       2.01820000
H        1.83870000      -1.88600000       0.67930000
