21
Properties=species:S:1:pos:R:3 gdb_108628=T pbc="F F F"
C       -0.38900000       1.53150000      -0.05600000
C        0.05690000       0.05940000       0.01470000
C        0.81400000      -0.39910000      -1.19780000
C        2.08380000      -0.83780000      -1.26420000
C        3.10940000      -0.94790000      -0.17900000
C        2.38690000      -1.30010000      -2.65690000
O        1.56410000      -2.41430000      -3.08420000
C        1.17730000      -1.09170000      -3.46320000
C        0.12980000      -0.46000000      -2.56000000
H        0.47440000       2.19730000      -0.15350000
H       -1.04780000       1.71210000      -0.91110000
H       -0.93560000       1.81430000       0.84880000
H        0.66090000      -0.09140000       0.91500000
H       -0.83460000      -0.57190000       0.13780000
H        2.76320000      -0.53100000       0.76940000
H        3.38930000      -1.99490000      -0.00590000
H        4.03140000      -0.42090000      -0.45630000
H        3.39760000      -1.29960000      -3.05700000
H        1.19380000      -0.88780000      -4.53060000
H       -0.79260000      -1.05370000      -2.52800000
H       -0.14820000       0.53740000      -2.92520000
