15
Properties=species:S:1:pos:R:3 gdb_131126=T pbc="F F F"
O       -0.08940000       1.48510000       0.10140000
C        0.01000000       0.08840000       0.03270000
C        0.76400000      -0.31260000      -1.23320000
O        1.16650000       0.50910000      -2.01870000
C        0.70700000      -0.48960000       1.23290000
C        0.41360000      -1.65000000       1.92220000
N        1.34710000      -1.75970000       2.89690000
N        2.23240000      -0.74480000       2.90200000
C        1.85070000       0.02590000       1.89020000
H        0.30040000       1.81230000      -0.72550000
H       -0.99000000      -0.37630000      -0.05340000
H        0.92310000      -1.39960000      -1.37800000
H       -0.37350000      -2.37770000       1.80070000
H        1.42600000      -2.47820000       3.59650000
H        2.38570000       0.93690000       1.66930000
