21
Properties=species:S:1:pos:R:3 gdb_103711=T pbc="F F F"
C        0.19010000       1.54970000       0.20340000
C       -0.15130000       0.08110000      -0.08020000
C        0.61290000      -0.47270000      -1.27060000
O        0.34460000       0.21130000      -2.46570000
C        1.99590000      -1.04590000      -1.11020000
C        0.82410000      -1.97450000      -1.45440000
C        0.34380000      -2.97300000      -0.40760000
C        0.76700000      -2.48770000      -2.79870000
C        0.70470000      -2.98390000      -3.89250000
H        1.25630000       1.67560000       0.42280000
H       -0.05950000       2.18320000      -0.65360000
H       -0.37450000       1.92260000       1.06270000
H        0.05660000      -0.51640000       0.81160000
H       -1.22470000      -0.01160000      -0.28480000
H        0.88850000       1.00550000      -2.48200000
H        2.71390000      -0.85140000      -1.89850000
H        2.41510000      -1.13250000      -0.11240000
H        0.48650000      -2.60000000       0.60890000
H       -0.71720000      -3.20390000      -0.54400000
H        0.90480000      -3.90740000      -0.50290000
H        0.64640000      -3.39680000      -4.86860000
