21
Properties=species:S:1:pos:R:3 gdb_81123=T pbc="F F F"
C       -0.15810000       1.58340000      -0.00680000
C        0.02080000       0.07250000       0.01370000
C        1.18400000      -0.63900000      -0.75040000
C        2.16230000      -0.15490000       0.35830000
C        0.88650000      -0.64960000       1.10580000
C        0.63320000      -0.64970000       2.60430000
C        1.63340000      -1.40440000       3.35170000
C        2.47260000      -2.03060000       3.94210000
C        0.90990000      -1.87800000       0.14870000
H        0.77280000       2.13580000       0.14330000
H       -0.57920000       1.90290000      -0.96670000
H       -0.85980000       1.89950000       0.77370000
H       -0.95110000      -0.41250000      -0.14290000
H        1.35800000      -0.63710000      -1.82710000
H        3.06250000      -0.75630000       0.50630000
H        2.39740000       0.90960000       0.40420000
H        0.61000000       0.38660000       2.96790000
H       -0.36470000      -1.06450000       2.80150000
H        3.20720000      -2.58100000       4.47540000
H       -0.04130000      -2.39720000      -0.00360000
H        1.73680000      -2.57940000       0.28300000
