23
Properties=species:S:1:pos:R:3 gdb_121415=T pbc="F F F"
O       -0.11770000       1.49860000       0.12160000
C        0.03930000       0.09160000       0.00450000
C       -1.35640000      -0.52230000      -0.03760000
C       -1.38530000      -2.05660000      -0.03880000
C       -2.81570000      -2.59010000       0.15640000
C       -2.85330000      -4.12010000       0.05030000
C       -2.17340000      -4.57160000      -1.24290000
O       -0.85020000      -4.07250000      -1.33790000
C       -0.80460000      -2.65690000      -1.32980000
H        0.75600000       1.90000000       0.11630000
H        0.60520000      -0.16430000      -0.90460000
H        0.59790000      -0.31980000       0.86190000
H       -1.90500000      -0.15090000       0.83660000
H       -1.88490000      -0.13470000      -0.91830000
H       -0.76860000      -2.42430000       0.79430000
H       -3.21500000      -2.25660000       1.12100000
H       -3.46560000      -2.15560000      -0.61730000
H       -2.32440000      -4.56630000       0.90160000
H       -3.88490000      -4.48990000       0.07710000
H       -2.09230000      -5.66150000      -1.29430000
H       -2.76560000      -4.23550000      -2.11300000
H       -1.35770000      -2.25290000      -2.19810000
H        0.24950000      -2.39430000      -1.45600000
