15
Properties=species:S:1:pos:R:3 gdb_66742=T pbc="F F F"
O        0.13580000       1.50720000      -0.36560000
C        0.05780000       0.15420000      -0.16650000
C       -1.14470000      -0.78770000       0.18590000
C       -0.37770000      -1.84350000      -0.52860000
C        0.59170000      -0.81340000      -1.24580000
C        2.12660000      -0.83160000      -0.89060000
N        2.05330000      -1.12180000       0.58630000
C        0.87120000      -0.72470000       0.83800000
N       -0.26110000      -1.63630000       1.01880000
H        0.08680000       1.95840000       0.48490000
H       -2.20020000      -0.64850000       0.37310000
H       -0.66140000      -2.83670000      -0.84960000
H        0.30160000      -0.63840000      -2.28540000
H        2.70430000      -1.64610000      -1.33640000
H        2.59100000       0.12030000      -1.18290000
