20
Properties=species:S:1:pos:R:3 gdb_120827=T pbc="F F F"
C        0.20370000       1.28980000      -0.10610000
O       -0.00430000      -0.09530000      -0.23420000
C        0.93880000      -0.70790000      -1.09280000
C        0.68270000      -2.19020000      -1.09460000
C       -0.38770000      -2.78450000      -1.97520000
C        1.06390000      -3.06020000      -2.26810000
N        1.64040000      -2.48780000      -3.45160000
C        2.92810000      -2.04410000      -3.51150000
O        3.68090000      -1.95490000      -2.56680000
H        1.19950000       1.51930000       0.30570000
H        0.10880000       1.81090000      -1.07300000
H       -0.55810000       1.67450000       0.57650000
H        0.85130000      -0.29880000      -2.11240000
H        1.96550000      -0.50640000      -0.75040000
H        0.82150000      -2.65580000      -0.12380000
H       -1.00010000      -3.59440000      -1.59640000
H       -0.90450000      -2.10260000      -2.64320000
H        1.44710000      -4.04660000      -2.01820000
H        1.14810000      -2.60750000      -4.32390000
H        3.21050000      -1.75080000      -4.54340000
