17
Properties=species:S:1:pos:R:3 gdb_69308=T pbc="F F F"
C       -0.11300000       1.55340000       0.07780000
C        0.14780000       0.08870000      -0.02230000
O       -0.74970000      -0.84170000       0.63590000
C        0.63360000      -0.93750000       0.94560000
C        1.28250000      -1.80970000      -0.13940000
C        2.81130000      -1.77730000      -0.13720000
O        0.77460000      -3.11930000      -0.17830000
C        0.71010000      -0.75650000      -1.16320000
O        0.80550000      -0.63290000      -2.34900000
H        0.77170000       2.12330000      -0.22180000
H       -0.93740000       1.83990000      -0.58280000
H       -0.38150000       1.82510000       1.10190000
H        0.94250000      -0.79400000       1.97490000
H        3.19030000      -2.40000000       0.67840000
H        3.19530000      -2.16990000      -1.08430000
H        3.19970000      -0.76090000      -0.01460000
H        0.94770000      -3.47710000      -1.05650000
