21
Properties=species:S:1:pos:R:3 gdb_65963=T pbc="F F F"
C       -0.39020000       1.52700000       0.19830000
C        0.00660000       0.07060000       0.02120000
C        1.28280000      -0.23410000      -0.84190000
C        1.84600000      -1.14960000       0.28060000
C        0.72850000      -0.64930000       1.20100000
C        0.90610000      -0.09460000       2.58460000
C        0.10590000      -1.35670000       2.37200000
C       -1.15730000      -0.78100000      -0.43310000
O       -2.29900000      -0.40670000      -0.52850000
H        0.45480000       2.11590000       0.56580000
H       -0.72380000       1.95410000      -0.75260000
H       -1.22090000       1.62810000       0.90290000
H        1.10500000      -0.70650000      -1.81180000
H        1.87510000       0.66920000      -1.00140000
H        1.77020000      -2.21580000       0.04530000
H        2.86990000      -0.94240000       0.60360000
H        1.89120000      -0.17900000       3.03340000
H        0.36950000       0.80880000       2.85510000
H       -0.97130000      -1.29930000       2.49520000
H        0.53930000      -2.30290000       2.68090000
H       -0.88310000      -1.83580000      -0.67140000
