12
Properties=species:S:1:pos:R:3 gdb_2571=T pbc="F F F"
O       -0.17500000       0.29900000       0.75210000
C        0.08170000       1.07870000      -0.13590000
C        1.30050000       1.94450000      -0.10380000
C        1.53810000       2.68190000       1.20200000
N        2.37320000       1.56500000       0.84120000
C        1.74440000       2.59640000      -1.36950000
O        1.05430000       2.68840000      -2.35370000
H       -0.55680000       1.19350000      -1.02970000
H        2.01070000       3.65980000       1.16250000
H        0.76690000       2.55370000       1.95680000
H        2.04190000       0.72810000       1.32480000
H        2.77840000       3.00090000      -1.32400000
