13
Properties=species:S:1:pos:R:3 gdb_867=T pbc="F F F"
C        0.10580000       1.45990000       0.05090000
C       -0.05670000      -0.00980000      -0.04670000
C       -1.08530000      -0.86230000      -0.24070000
N       -0.63470000      -2.18430000      -0.22740000
C        0.64080000      -2.06180000      -0.03630000
N        1.59340000      -3.05220000      -0.01230000
O        1.08720000      -0.79130000       0.08710000
H        0.77850000       1.84860000      -0.72270000
H       -0.86710000       1.94190000      -0.07250000
H        0.51410000       1.76260000       1.02250000
H       -2.12800000      -0.62550000      -0.38510000
H        1.19510000      -3.96510000       0.15210000
H        2.39040000      -2.85360000       0.57510000
