18
Properties=species:S:1:pos:R:3 gdb_18513=T pbc="F F F"
C        0.00880000       1.53200000      -0.04890000
C        0.01120000       0.07650000      -0.00250000
C        0.01670000      -1.12840000       0.02730000
C        0.01260000      -2.57990000       0.08800000
C        0.22530000      -3.28150000       1.48790000
C       -1.11170000      -4.00600000       1.30790000
C       -2.22150000      -3.00620000       1.13760000
C       -1.34010000      -3.31670000      -0.03650000
H        0.89810000       1.91700000      -0.56040000
H       -0.86930000       1.91240000      -0.58290000
H       -0.00550000       1.96430000       0.95800000
H        0.73180000      -2.98430000      -0.63080000
H        1.09350000      -3.94340000       1.47710000
H        0.29790000      -2.61250000       2.35000000
H       -1.30570000      -5.03560000       1.58250000
H       -3.22150000      -3.42440000       1.08420000
H       -2.16700000      -2.03240000       1.61830000
H       -1.73220000      -3.71790000      -0.96310000
