18
Properties=species:S:1:pos:R:3 gdb_75988=T pbc="F F F"
C       -0.14990000       1.59520000       0.14850000
C       -0.01620000       0.08780000       0.00130000
C        0.78690000      -0.49640000      -1.22820000
C        1.38870000       0.44280000      -2.16220000
C        1.89540000       1.20280000      -2.94400000
N        1.71290000      -1.08220000      -0.24710000
C        2.92740000      -1.83790000      -0.41090000
C        1.07210000      -0.59310000       0.86410000
O        1.31470000      -0.68520000       2.03950000
H        0.81190000       2.09560000       0.00900000
H       -0.85420000       2.00450000      -0.58180000
H       -0.51640000       1.83300000       1.15120000
H       -0.98640000      -0.40560000       0.10940000
H        0.22440000      -1.25780000      -1.78410000
H        2.33940000       1.87830000      -3.63330000
H        3.64850000      -1.29330000      -1.03090000
H        3.35490000      -1.99110000       0.58280000
H        2.73800000      -2.81600000      -0.86990000
