19
Properties=species:S:1:pos:R:3 gdb_110552=T pbc="F F F"
O        0.58770000      -0.01690000      -1.37280000
C        0.04850000       0.10890000      -0.06360000
C       -1.34360000      -0.50910000       0.04960000
C       -1.41230000      -2.03600000       0.01650000
C       -1.35210000      -2.52950000       1.46940000
C       -1.25460000      -1.29600000       2.35980000
C       -2.06560000      -0.37810000       1.41830000
O       -3.26560000      -1.14290000       1.20370000
C       -2.68000000      -2.35780000       0.77060000
H        0.72940000      -0.95380000      -1.54060000
H        0.73270000      -0.32050000       0.68230000
H       -0.00700000       1.18700000       0.12530000
H       -1.97510000      -0.07590000      -0.73390000
H       -1.07270000      -2.63580000      -0.81800000
H       -0.95450000      -3.49760000       1.74140000
H       -1.76390000      -1.43000000       3.31820000
H       -0.23500000      -0.94870000       2.53980000
H       -2.32180000       0.62080000       1.76530000
H       -3.38430000      -3.14140000       0.53140000
