18
Properties=species:S:1:pos:R:3 gdb_64009=T pbc="F F F"
C       -0.09610000       1.58330000      -0.13120000
C       -0.06750000       0.05870000      -0.02220000
O       -1.37360000      -0.48360000      -0.11230000
C        0.94590000      -0.56780000      -1.08160000
N        2.29900000      -0.53220000      -0.45120000
C        2.00780000      -0.53250000       0.77710000
O        2.63280000      -0.14840000       1.93080000
C        1.29970000       0.25050000       2.45930000
C        0.60700000      -0.46880000       1.26370000
H        0.90900000       2.00860000      -0.05620000
H       -0.50380000       1.88250000      -1.10420000
H       -0.72690000       2.01500000       0.65120000
H       -1.79090000      -0.13280000      -0.90630000
H        0.63360000      -1.59190000      -1.32110000
H        0.97050000       0.00670000      -2.01330000
H        1.13180000      -0.18130000       3.44660000
H        1.22990000       1.33980000       2.48560000
H        0.16010000      -1.42170000       1.55400000
