17
Properties=species:S:1:pos:R:3 gdb_68527=T pbc="F F F"
O       -0.06930000       1.39060000      -0.01710000
C        0.01880000      -0.00880000      -0.02180000
C       -1.36000000      -0.70450000      -0.01340000
C       -0.76960000      -2.13060000      -0.12980000
C        0.18980000      -1.93460000      -1.30230000
C        0.65290000      -0.68320000      -1.24350000
C        0.17760000      -2.12960000       1.09890000
O        0.46240000      -3.05950000       1.80160000
C        0.67810000      -0.67150000       1.22360000
H        0.81530000       1.75420000       0.09270000
H       -1.91730000      -0.52360000       0.91140000
H       -1.96560000      -0.42860000      -0.87890000
H       -1.44000000      -2.98620000      -0.17120000
H        0.49900000      -2.72950000      -1.96820000
H        1.41210000      -0.22240000      -1.86370000
H        1.76940000      -0.62020000       1.24310000
H        0.29360000      -0.23720000       2.15300000
