15
Properties=species:S:1:pos:R:3 gdb_124166=T pbc="F F F"
C       -0.02300000       1.47230000       0.00030000
C        0.01320000       0.01880000      -0.00830000
C        0.06490000      -1.18710000      -0.00940000
C        0.05470000      -2.59770000      -0.01150000
N        1.15220000      -3.37070000      -0.08960000
N        0.66630000      -4.59290000      -0.06760000
N       -0.66530000      -4.72070000       0.01570000
C       -1.07840000      -3.45680000       0.05740000
N       -2.40240000      -3.09710000       0.20680000
H        0.97230000       1.88500000       0.19810000
H       -0.36260000       1.87330000      -0.96160000
H       -0.69830000       1.84990000       0.77630000
H        1.26600000      -5.39950000      -0.11120000
H       -3.05480000      -3.80320000      -0.10270000
H       -2.61720000      -2.18180000      -0.16220000
