15
Properties=species:S:1:pos:R:3 gdb_29251=T pbc="F F F"
N        0.04710000       1.39650000       0.32500000
C       -0.01210000       0.03430000       0.05200000
C       -1.13260000      -0.68900000      -0.09100000
O       -1.15020000      -2.05200000      -0.30460000
C        0.00560000      -2.76710000      -0.35330000
N        0.05140000      -4.02120000      -0.52400000
N        1.16980000      -2.03200000      -0.20940000
C        1.28150000      -0.66190000      -0.03500000
N        2.36880000       0.00620000       0.04520000
H        0.97770000       1.75600000       0.14780000
H       -0.67840000       1.95480000      -0.09990000
H       -2.13750000      -0.29220000      -0.05440000
H       -0.88660000      -4.40380000      -0.61190000
H        2.01000000      -2.58810000      -0.27050000
H        3.19880000      -0.58030000      -0.03560000
