22
Properties=species:S:1:pos:R:3 gdb_98835=T pbc="F F F"
C       -0.57580000       1.95340000      -0.25000000
C       -0.77600000       0.48810000      -0.62590000
C       -1.89620000      -0.19620000       0.14600000
O       -2.64490000       0.41680000       0.87710000
C       -2.00140000      -1.71040000      -0.03200000
C       -1.48720000      -2.45040000       1.25010000
C       -2.98040000      -2.68360000       1.58490000
N       -3.30920000      -2.34220000       0.19250000
C       -4.56290000      -1.70160000      -0.14550000
H        0.21420000       2.40610000      -0.85560000
H       -1.49820000       2.51990000      -0.39890000
H       -0.30200000       2.05310000       0.80390000
H       -1.01050000       0.38150000      -1.69520000
H        0.14370000      -0.09700000      -0.48360000
H       -1.52540000      -2.00140000      -0.97790000
H       -0.94430000      -3.36480000       1.00870000
H       -0.91170000      -1.85420000       1.95890000
H       -3.27950000      -3.69360000       1.88950000
H       -3.36000000      -1.96000000       2.32070000
H       -4.75040000      -0.76760000       0.40310000
H       -4.58160000      -1.48190000      -1.21930000
H       -5.38170000      -2.40110000       0.05860000
