17
Properties=species:S:1:pos:R:3 gdb_46768=T pbc="F F F"
O       -0.10310000       0.15790000       0.54300000
C       -0.05120000       1.32170000       0.24580000
C       -1.23690000       2.28140000       0.14820000
O       -0.73270000       3.50890000      -0.33120000
C        0.68190000       3.57600000      -0.07470000
C        1.05280000       4.09400000       1.29710000
C        1.88590000       3.26990000       1.93220000
C        2.22950000       2.04460000       1.11620000
C        1.21990000       2.13020000      -0.05070000
H       -2.00060000       1.90390000      -0.53980000
H       -1.69440000       2.37180000       1.14640000
H        1.08830000       4.20480000      -0.87370000
H        0.68440000       5.04300000       1.66850000
H        2.31110000       3.44530000       2.91470000
H        3.26470000       2.08610000       0.75540000
H        2.12730000       1.10550000       1.67140000
H        1.63190000       1.79270000      -1.00550000
