18
Properties=species:S:1:pos:R:3 gdb_72310=T pbc="F F F"
C        0.06090000       1.46390000       0.09320000
C       -0.04370000      -0.03050000      -0.07520000
C        0.83610000      -0.76160000      -1.12670000
N        0.51640000      -2.21520000      -0.90890000
C       -0.52770000      -2.11330000      -0.19920000
O       -0.51610000      -2.36470000       1.18100000
C       -0.65550000      -0.86920000       1.18950000
C       -1.34140000      -0.77500000      -0.09730000
C       -2.73530000      -0.45160000      -0.53670000
H        1.06230000       1.75110000       0.43210000
H       -0.12740000       1.97690000      -0.85740000
H       -0.66140000       1.84610000       0.82170000
H        0.64400000      -0.37440000      -2.14000000
H        1.91030000      -0.67460000      -0.93040000
H       -0.83870000      -0.43950000       2.16820000
H       -3.01890000       0.55540000      -0.21400000
H       -2.82440000      -0.49070000      -1.62740000
H       -3.45690000      -1.15750000      -0.11290000
