18
Properties=species:S:1:pos:R:3 gdb_76528=T pbc="F F F"
C       -0.07110000       1.55200000      -0.01030000
C        0.04410000       0.04430000       0.00950000
C        1.38380000      -0.63580000      -0.16760000
O        2.55360000       0.12850000      -0.22250000
C        0.70770000      -0.66230000       1.16790000
C        1.24020000      -0.12090000       2.50360000
N        0.68660000      -1.34470000       3.10810000
C        0.23530000      -1.89260000       1.92530000
O       -0.30200000      -2.93190000       1.64580000
H        0.86080000       2.02070000       0.31610000
H       -0.29200000       1.91120000      -1.02160000
H       -0.87690000       1.89720000       0.64540000
H       -0.80210000      -0.49650000      -0.40860000
H        1.41260000      -1.57390000      -0.72160000
H        2.64310000       0.47590000      -1.11660000
H        2.32940000      -0.03800000       2.55820000
H        0.77570000       0.80140000       2.86620000
H        0.80130000      -1.74690000       4.02560000
