22
Properties=species:S:1:pos:R:3 gdb_99104=T pbc="F F F"
C        1.11750000      -0.66750000      -0.94440000
C        0.02730000      -1.33590000      -0.11050000
C       -0.79470000      -2.35520000      -0.88920000
O       -0.58410000      -2.58740000      -2.05790000
C       -1.91180000      -3.07970000      -0.13070000
C       -3.06860000      -2.16470000       0.26160000
C       -3.76070000      -1.46610000      -0.89170000
C       -3.85630000      -2.51700000       1.47080000
N       -2.95030000      -1.35000000       1.48990000
H        1.68230000       0.04790000      -0.34030000
H        1.81260000      -1.40920000      -1.34570000
H        0.68490000      -0.13600000      -1.79580000
H        0.45580000      -1.84890000       0.76260000
H       -0.66570000      -0.59310000       0.30680000
H       -2.27200000      -3.87910000      -0.78580000
H       -1.49480000      -3.54140000       0.77350000
H       -4.20400000      -2.19660000      -1.57690000
H       -4.55020000      -0.81070000      -0.51740000
H       -3.05890000      -0.85500000      -1.46900000
H       -4.91460000      -2.27430000       1.51520000
H       -3.57370000      -3.40390000       2.03240000
H       -2.10160000      -1.59470000       1.99470000
