19
Properties=species:S:1:pos:R:3 gdb_41930=T pbc="F F F"
C       -0.01400000       1.52250000      -0.11710000
O        1.33850000       1.90650000       0.13650000
C        2.03220000       0.80030000       0.70110000
C        3.43870000       0.61330000       0.14040000
C        4.04560000      -0.67300000       0.73740000
C        3.08890000      -1.84180000       0.72830000
C        1.76380000      -1.71660000       0.55220000
C        1.17350000      -0.40380000       0.39060000
C       -0.01500000       0.01770000      -0.04890000
H       -0.69330000       1.97470000       0.62720000
H       -0.31290000       1.90890000      -1.10150000
H        2.10800000       0.92810000       1.79780000
H        3.36860000       0.52330000      -0.94950000
H        4.06950000       1.47960000       0.36180000
H        4.95580000      -0.94370000       0.18900000
H        4.37740000      -0.48950000       1.77080000
H        3.52150000      -2.83030000       0.86010000
H        1.12380000      -2.59340000       0.51000000
H       -0.85960000      -0.59290000      -0.34270000
