16
Properties=species:S:1:pos:R:3 gdb_29942=T pbc="F F F"
C       -0.02620000       1.45180000       0.02630000
N       -0.04350000      -0.00470000      -0.00110000
C       -1.18480000      -0.70940000      -0.15800000
C       -1.18160000      -2.06710000      -0.18060000
C        0.09510000      -2.69630000      -0.02690000
N        0.18150000      -4.05580000      -0.07810000
N        1.21890000      -2.03130000       0.13390000
C        1.22430000      -0.66510000       0.15060000
O        2.21090000       0.03180000       0.28860000
H        0.61160000       1.83510000      -0.77340000
H       -1.04470000       1.82460000      -0.09860000
H        0.38630000       1.80520000       0.97410000
H       -2.09560000      -0.13000000      -0.26490000
H       -2.09490000      -2.62940000      -0.31660000
H       -0.64170000      -4.61560000       0.06040000
H        1.06660000      -4.45450000       0.19200000
