13
Properties=species:S:1:pos:R:3 gdb_3379=T pbc="F F F"
N        0.01910000      -1.15990000      -0.01320000
C        0.02050000      -0.00370000       0.02900000
C        0.02790000       1.43590000       0.07650000
C        0.51620000       2.18970000       1.26240000
C        1.62860000       1.44970000       1.99810000
C        2.37170000       1.42910000       0.63540000
N        1.28000000       2.22980000      -0.04030000
H       -0.78220000       1.89390000      -0.48310000
H       -0.04170000       3.04580000       1.62870000
H        2.12690000       2.07140000       2.74280000
H        1.36000000       0.49240000       2.45070000
H        3.29130000       2.01490000       0.62530000
H        2.55490000       0.45600000       0.17390000
