13
Properties=species:S:1:pos:R:3 gdb_44043=T pbc="F F F"
O       -0.14750000       0.17060000      -0.57560000
C       -0.01300000       1.23910000      -0.09560000
O       -1.00720000       2.07840000       0.43240000
C       -0.00790000       3.00220000       0.91540000
C        0.73690000       2.98590000       2.25240000
C        1.84920000       3.21180000       1.19720000
C        0.90310000       4.07440000       0.23270000
O        1.15200000       3.29270000      -0.94560000
C        1.10450000       2.30340000       0.14220000
H        0.53870000       3.79840000       2.95320000
H        0.77510000       2.02230000       2.76620000
H        2.92200000       3.34210000       1.33870000
H        0.81890000       5.15900000       0.13860000
