17
Properties=species:S:1:pos:R:3 gdb_34935=T pbc="F F F"
N        0.11360000      -1.16300000       0.09260000
C        0.11330000      -0.00670000       0.05590000
C        0.09640000       1.43340000       0.04500000
C        0.49850000       2.25260000       1.25490000
C        1.61640000       1.54550000       2.03740000
C        2.47620000       1.60600000       0.75060000
C        3.92590000       1.88340000       0.68470000
N        3.36960000       0.61240000       0.17910000
C        1.35510000       2.28210000      -0.00720000
H       -0.73310000       1.85180000      -0.51730000
H       -0.16670000       3.01130000       1.64600000
H        2.02330000       2.15710000       2.84570000
H        1.37010000       0.55110000       2.42200000
H        4.32890000       2.53990000      -0.08250000
H        4.48190000       1.88560000       1.61960000
H        3.53110000      -0.14820000       0.83400000
H        1.45890000       3.05220000      -0.76170000
