12
Properties=species:S:1:pos:R:3 gdb_132674=T pbc="F F F"
O        0.08700000       1.32970000      -0.05640000
C        0.06430000      -0.01800000      -0.05160000
C        0.01460000      -0.70280000      -1.26730000
C       -0.00760000      -2.09030000      -1.22240000
C        0.02010000      -2.72970000       0.00760000
F        0.00040000      -4.05980000       0.10410000
C        0.06930000      -1.94210000       1.15290000
F        0.09630000      -2.53110000       2.33930000
N        0.09090000      -0.62870000       1.13150000
H        0.12070000       1.60940000       0.86800000
H       -0.00530000      -0.15590000      -2.20040000
H       -0.04600000      -2.68670000      -2.12670000
