20
Properties=species:S:1:pos:R:3 gdb_94907=T pbc="F F F"
C       -0.09690000       1.56090000      -0.03720000
C       -0.00610000       0.03380000       0.01450000
C        0.64570000      -0.61080000      -1.23680000
C        1.27530000      -1.94040000      -0.75520000
C        1.53650000      -1.74950000       0.73340000
C        2.30730000      -0.51280000       1.18590000
C        3.10980000       0.28160000       0.29910000
N        3.78440000       0.91840000      -0.39390000
C        0.77920000      -0.53560000       1.19290000
H        0.89570000       2.01260000      -0.12550000
H       -0.69010000       1.88500000      -0.89850000
H       -0.57390000       1.96170000       0.86350000
H       -1.02350000      -0.36830000       0.11990000
H       -0.08390000      -0.76780000      -2.03560000
H        1.41600000       0.05180000      -1.63820000
H        0.56950000      -2.77060000      -0.87190000
H        2.17660000      -2.20230000      -1.31800000
H        1.64480000      -2.62760000       1.36040000
H        2.75520000      -0.59790000       2.17140000
H        0.32590000      -0.49030000       2.17760000
