22
Properties=species:S:1:pos:R:3 gdb_88447=T pbc="F F F"
C        0.73340000      -2.71700000       4.45830000
C        0.71080000      -2.67370000       2.95310000
O       -0.26190000      -1.81700000       2.35030000
C        1.12150000      -1.51160000       2.13760000
C        1.61310000      -0.17890000       2.66250000
C        0.58370000       0.93260000       2.57840000
C        2.67550000      -0.12510000       3.71540000
N        2.98460000       0.24640000       2.33950000
C        3.86150000      -0.65280000       1.60190000
H        0.68240000      -1.71400000       4.88590000
H       -0.12260000      -3.29250000       4.82600000
H        1.64430000      -3.20780000       4.81810000
H        0.78340000      -3.65180000       2.47070000
H        1.44160000      -1.72530000       1.11520000
H       -0.29590000       0.69130000       3.18060000
H        1.01920000       1.87170000       2.92730000
H        0.25030000       1.07480000       1.54450000
H        2.68430000       0.68270000       4.44400000
H        3.07480000      -1.06930000       4.08250000
H        3.75770000      -1.71670000       1.87070000
H        3.67530000      -0.55030000       0.52770000
H        4.89850000      -0.35810000       1.79150000
