15
Properties=species:S:1:pos:R:3 gdb_35889=T pbc="F F F"
N       -0.57310000      -0.94950000      -0.85230000
C       -0.33150000       0.09360000      -0.41850000
C       -0.04250000       1.41550000       0.11800000
C       -0.27630000       1.57080000       1.64050000
C        0.68710000       2.71970000       2.02060000
O        1.49170000       2.99570000       0.85910000
C        1.43270000       1.89270000      -0.01030000
C        2.40270000       0.84160000       0.37100000
N        3.16930000       0.04250000       0.69990000
H       -0.64600000       2.14910000      -0.42610000
H       -1.31900000       1.79750000       1.86600000
H       -0.01060000       0.64480000       2.15400000
H        0.16900000       3.64850000       2.27120000
H        1.33090000       2.43890000       2.86080000
H        1.67050000       2.23970000      -1.01900000
