20
Properties=species:S:1:pos:R:3 gdb_85519=T pbc="F F F"
C       -0.13530000       1.53090000       0.04690000
C        0.01810000       0.00480000       0.05630000
C        0.68150000      -0.49700000      -1.24380000
C        0.91940000      -1.99540000      -1.23880000
O        0.56810000      -2.71330000      -2.14630000
C        1.64820000      -2.57160000      -0.02220000
C        1.60370000      -1.71130000       1.22700000
N        2.27090000      -0.39710000       1.15580000
C        0.80250000      -0.46080000       1.27100000
H        0.84760000       2.01230000       0.01020000
H       -0.71130000       1.86480000      -0.82180000
H       -0.65150000       1.88210000       0.94690000
H       -0.98310000      -0.44440000       0.12640000
H        0.07810000      -0.24720000      -2.11960000
H        1.65810000      -0.00610000      -1.33930000
H        1.21870000      -3.55920000       0.17190000
H        2.69230000      -2.74010000      -0.31900000
H        1.70850000      -2.26270000       2.15890000
H        2.69030000      -0.16380000       2.05100000
H        0.36330000      -0.18570000       2.22880000
