25
Properties=species:S:1:pos:R:3 gdb_107656=T pbc="F F F"
C        0.14610000       1.48560000       0.37330000
C       -0.02430000       0.06480000      -0.18010000
C       -1.44150000      -0.48130000      -0.07260000
C       -1.83920000      -1.08980000       1.25040000
C       -1.59830000      -1.98800000       0.05470000
C       -2.76490000      -2.73100000      -0.59860000
C       -3.53400000      -1.88300000      -1.62400000
C       -3.80340000      -0.47240000      -1.09240000
C       -2.48590000       0.28700000      -0.87710000
H        1.19110000       1.80580000       0.31370000
H       -0.45270000       2.21190000      -0.18500000
H       -0.16210000       1.53770000       1.42310000
H        0.29050000       0.04400000      -1.23300000
H        0.65590000      -0.61000000       0.35450000
H       -1.10860000      -1.09000000       2.05360000
H       -2.86440000      -0.97760000       1.59110000
H       -0.66660000      -2.54670000       0.08140000
H       -2.38890000      -3.63680000      -1.08610000
H       -3.46110000      -3.07460000       0.17770000
H       -2.94730000      -1.80310000      -2.54930000
H       -4.47130000      -2.38400000      -1.89020000
H       -4.43090000       0.08970000      -1.79290000
H       -4.37130000      -0.53200000      -0.15450000
H       -2.68550000       1.25700000      -0.40530000
H       -2.05650000       0.51060000      -1.86480000
