19
Properties=species:S:1:pos:R:3 gdb_3155=T pbc="F F F"
C       -0.55590000       1.29270000       0.04640000
C        0.10100000      -0.07440000      -0.06380000
C        1.47400000      -0.18300000      -0.79450000
C        1.97610000      -1.14390000       0.32150000
C        0.77850000      -0.70170000       1.17260000
C        0.87180000      -0.08110000       2.53790000
C        0.15270000      -1.39810000       2.34070000
H        0.13760000       2.03170000       0.46220000
H       -0.87720000       1.65180000      -0.93770000
H       -1.44240000       1.26510000       0.69090000
H       -0.60970000      -0.78980000      -0.49670000
H        1.46580000      -0.56470000      -1.81810000
H        2.00910000       0.77130000      -0.78250000
H        1.91580000      -2.19650000       0.02560000
H        2.97340000      -0.95500000       0.72850000
H        1.83510000      -0.09320000       3.03890000
H        0.27200000       0.79770000       2.75250000
H       -0.93080000      -1.40090000       2.41710000
H        0.62490000      -2.30250000       2.71250000
