17
Properties=species:S:1:pos:R:3 gdb_42863=T pbc="F F F"
O       -0.05570000       0.06450000      -0.19070000
C       -0.03160000       1.24960000      -0.05860000
C       -1.11240000       2.35540000       0.16980000
C        0.02910000       3.18710000       0.82960000
C        1.09210000       2.31070000       0.09750000
C        1.42760000       2.84950000      -1.27320000
C        0.55720000       3.43620000      -2.09680000
C       -0.90530000       3.73540000      -1.84700000
O       -1.66480000       2.85280000      -1.03020000
H       -1.95980000       2.07210000       0.79990000
H        0.05350000       4.25700000       0.62080000
H        0.04220000       3.03030000       1.91100000
H        1.98520000       2.00960000       0.64650000
H        2.44700000       2.69560000      -1.61360000
H        0.91450000       3.78880000      -3.06140000
H       -0.99310000       4.76390000      -1.45890000
H       -1.43060000       3.72770000      -2.80720000
