19
Properties=species:S:1:pos:R:3 gdb_38535=T pbc="F F F"
C       -0.08950000       1.42520000       0.21870000
C        1.29050000       0.87020000      -0.00290000
C        1.76810000       0.13140000       1.27220000
C        0.56850000      -0.79520000       1.08890000
C        0.18240000      -2.02860000       1.38360000
C       -0.95080000      -2.63350000       0.58270000
O       -1.58620000      -1.73380000      -0.31670000
C       -0.69900000      -0.90130000      -1.06530000
C        0.04450000      -0.04420000      -0.07850000
H       -0.39510000       1.77480000       1.20280000
H       -0.48470000       2.01430000      -0.60460000
H        1.93310000       1.21370000      -0.80420000
H        2.72360000      -0.38870000       1.16110000
H        1.80760000       0.74450000       2.17930000
H        0.67720000      -2.66020000       2.11590000
H       -0.57280000      -3.51650000       0.03420000
H       -1.75260000      -2.99230000       1.23940000
H        0.00200000      -1.51620000      -1.65340000
H       -1.32960000      -0.33680000      -1.75740000
