17
Properties=species:S:1:pos:R:3 gdb_69471=T pbc="F F F"
C        0.10610000       1.53760000       0.01830000
C       -0.10210000       0.06050000       0.06470000
C       -1.40840000      -0.73740000      -0.12110000
C       -0.82230000      -1.80170000       0.86460000
O       -0.70790000      -3.13020000       0.37700000
C       -1.31700000      -4.11970000       1.05940000
O       -1.27920000      -5.26180000       0.71690000
C        0.47710000      -0.99760000       0.92400000
O        0.93420000      -0.80320000      -0.41660000
H        1.12060000       1.79010000       0.33660000
H       -0.03590000       1.91480000      -1.00060000
H       -0.60790000       2.05210000       0.66920000
H       -2.30930000      -0.25370000       0.26280000
H       -1.57270000      -1.09380000      -1.13930000
H       -1.34620000      -1.79490000       1.82760000
H       -1.84710000      -3.75430000       1.96200000
H        1.21760000      -0.96280000       1.71530000
