21
Properties=species:S:1:pos:R:3 gdb_82888=T pbc="F F F"
C       -0.23130000       1.62570000      -0.05630000
C        0.02520000       0.12490000      -0.02110000
C        1.11140000      -0.58520000      -0.89430000
C        2.41290000       0.14050000      -0.49600000
C        2.36540000      -0.31550000       0.97580000
C        2.52530000      -1.85300000       0.82220000
C        1.13210000      -1.76010000       0.18350000
C        0.78540000      -0.56930000       1.12010000
O        0.26560000      -0.78920000       2.39230000
H        0.66500000       2.21450000       0.15950000
H       -0.61060000       1.94260000      -1.03430000
H       -0.98700000       1.89770000       0.68940000
H       -0.92340000      -0.41240000      -0.14490000
H        0.92960000      -0.78860000      -1.94850000
H        3.30020000      -0.23560000      -1.01450000
H        2.36590000       1.22090000      -0.64690000
H        2.92320000       0.24990000       1.72380000
H        3.37560000      -2.22190000       0.23990000
H        2.47000000      -2.37510000       1.78020000
H        0.45920000      -2.60220000       0.02740000
H        0.43220000      -0.00700000       2.92880000
