19
Properties=species:S:1:pos:R:3 gdb_81448=T pbc="F F F"
O        0.00530000       1.39200000      -0.11210000
C        0.02820000      -0.01310000      -0.03640000
C        0.05000000      -0.64440000       1.39340000
C       -1.43340000      -0.22170000       1.52040000
C       -1.41250000      -0.61220000       0.00470000
C       -1.05890000      -2.08090000       0.11690000
C       -2.01070000      -3.23050000       0.11070000
C       -0.97410000      -3.07010000      -0.99780000
O       -0.00980000      -2.04940000       1.09880000
H        0.89310000       1.71430000       0.07360000
H        0.72670000      -0.45910000      -0.75600000
H        0.81920000      -0.45310000       2.14140000
H       -2.06140000      -0.80900000       2.19270000
H       -1.56070000       0.84830000       1.67080000
H       -2.18500000      -0.32070000      -0.70490000
H       -1.83830000      -4.01510000       0.83930000
H       -3.05430000      -3.04500000      -0.12260000
H       -1.31200000      -2.77600000      -1.98650000
H       -0.13030000      -3.75120000      -0.98900000
