13
Properties=species:S:1:pos:R:3 gdb_131135=T pbc="F F F"
O       -0.12870000       1.43130000       0.07570000
C       -0.00340000       0.04090000       0.03270000
C        0.79950000      -0.38310000      -1.20180000
O        1.17390000       0.43740000      -1.99930000
C        0.67210000      -0.47250000       1.27650000
N        0.72280000      -1.73860000       1.59210000
O        1.43390000      -1.80030000       2.75770000
N        1.82250000      -0.55790000       3.16950000
C        1.36710000       0.27030000       2.27180000
H        0.28910000       1.75420000      -0.74040000
H       -0.98770000      -0.44990000      -0.05680000
H        1.00260000      -1.46480000      -1.30570000
H        1.51900000       1.33430000       2.34480000
