21
Properties=species:S:1:pos:R:3 gdb_38976=T pbc="F F F"
C        0.04270000       1.47340000       0.11120000
C        1.36240000       0.76280000      -0.03980000
C        1.72940000       0.09990000       1.29370000
C        0.40900000      -0.72040000       1.22420000
O        0.71940000      -2.08870000       1.03340000
C       -0.24230000      -2.77490000       0.24560000
C       -0.27700000      -2.23080000      -1.18470000
C       -0.69430000      -0.74960000      -1.17740000
C        0.04000000      -0.01280000      -0.09080000
H       -0.23850000       1.91120000       1.06790000
H       -0.28220000       2.05100000      -0.74980000
H        2.05030000       1.00140000      -0.84290000
H        2.58090000      -0.57950000       1.23630000
H        1.85410000       0.77370000       2.14760000
H       -0.30680000      -0.60910000       2.05490000
H        0.05540000      -3.82740000       0.26080000
H       -1.24380000      -2.70310000       0.70540000
H        0.72450000      -2.34020000      -1.61670000
H       -0.96730000      -2.82470000      -1.79430000
H       -0.52450000      -0.28240000      -2.15460000
H       -1.77570000      -0.68640000      -0.98620000
