17
Properties=species:S:1:pos:R:3 gdb_38791=T pbc="F F F"
C        0.00550000       1.51980000       0.07980000
C        1.47410000       1.93540000      -0.01840000
O        2.22520000       1.57240000       1.17500000
C        2.79310000       0.43530000       0.51860000
C        1.84560000      -0.83770000       0.52210000
O        0.59510000      -0.61780000       1.18110000
C        0.02860000      -0.00660000      -0.01310000
C        1.28080000      -0.39940000      -0.85300000
C        2.20750000       0.84570000      -0.85650000
H       -0.45750000       1.86700000       1.00780000
H       -0.55550000       1.93500000      -0.76790000
H        1.62700000       2.98930000      -0.26720000
H        3.85000000       0.28510000       0.75140000
H        2.29360000      -1.80620000       0.75710000
H       -0.93770000      -0.45660000      -0.25770000
H        1.18450000      -1.04280000      -1.72440000
H        2.79390000       1.11950000      -1.73030000
