17
Properties=species:S:1:pos:R:3 gdb_107536=T pbc="F F F"
O       -0.05850000       1.45110000       0.33520000
C        0.02810000       0.08200000      -0.01780000
C       -1.32110000      -0.54830000      -0.14670000
O       -2.02030000      -0.85270000       1.06960000
C       -1.83330000      -1.90440000       0.11420000
C       -2.94410000      -1.76180000      -0.93070000
C       -2.40380000      -0.30500000      -1.23460000
C       -3.29890000       0.81990000      -1.06010000
C       -4.05580000       1.74310000      -0.91940000
H       -0.59180000       1.50700000       1.13610000
H        0.55360000       0.04870000      -0.97820000
H        0.61620000      -0.49710000       0.71100000
H       -1.32310000      -2.79770000       0.45590000
H       -2.83590000      -2.42790000      -1.78900000
H       -3.95880000      -1.82010000      -0.53470000
H       -1.94170000      -0.27720000      -2.22670000
H       -4.71610000       2.56450000      -0.79010000
