19
Properties=species:S:1:pos:R:3 gdb_23237=T pbc="F F F"
C        0.30280000       1.67180000       0.00220000
C        0.17090000       0.15880000       0.09900000
N        0.63560000      -0.72010000      -1.04800000
C        1.86500000      -0.24060000      -1.76670000
C        2.79870000      -1.08900000      -0.86400000
C        1.52410000      -1.51190000      -0.09110000
C        1.08160000      -0.61700000       1.03840000
N        1.39080000      -0.61660000       2.26510000
O        0.71800000       0.41200000       2.95530000
H        1.34310000       2.00310000      -0.05000000
H       -0.22700000       2.04380000      -0.88110000
H       -0.14070000       2.12560000       0.89170000
H       -0.88070000      -0.08620000       0.29770000
H        1.84430000      -0.54890000      -2.81600000
H        2.02520000       0.84000000      -1.73820000
H        3.29360000      -1.91580000      -1.37710000
H        3.54070000      -0.54570000      -0.27600000
H        1.33300000      -2.58230000       0.02370000
H        1.03830000       0.29500000       3.85600000
