21
Properties=species:S:1:pos:R:3 gdb_97247=T pbc="F F F"
C        0.00760000       1.48410000       0.13860000
N        0.01490000       0.03170000       0.10040000
C       -1.05920000      -0.59900000      -0.10610000
O       -2.26410000       0.04130000      -0.22980000
C       -3.29200000      -0.56390000      -1.02510000
C       -3.39420000      -2.05720000      -0.77520000
N       -2.07800000      -2.62280000      -1.03220000
C       -1.09160000      -2.12280000      -0.06750000
C        0.27430000      -2.74370000      -0.33490000
H        0.95390000       1.85200000      -0.27000000
H       -0.82560000       1.93970000      -0.40800000
H       -0.04670000       1.82590000       1.18020000
H       -4.21530000      -0.04330000      -0.75840000
H       -3.07250000      -0.38370000      -2.08490000
H       -3.75260000      -2.23420000       0.25660000
H       -4.12620000      -2.48900000      -1.46570000
H       -2.10590000      -3.63540000      -0.98060000
H       -1.39840000      -2.37580000       0.96940000
H        0.60530000      -2.50920000      -1.34960000
H        1.01230000      -2.35640000       0.36710000
H        0.21800000      -3.83290000      -0.22840000
