19
Properties=species:S:1:pos:R:3 gdb_47520=T pbc="F F F"
O        0.04890000       0.03290000      -0.53510000
C        0.02190000       1.15020000      -0.07340000
C       -1.26930000       1.90510000       0.21340000
C       -1.37060000       3.26030000      -0.52640000
C       -0.42820000       4.37000000      -0.02240000
C        1.02860000       3.95650000       0.16660000
C        1.62390000       2.97730000      -0.87030000
C        1.31750000       1.90790000       0.21010000
O        1.13800000       2.93910000       1.20310000
H       -2.09390000       1.25010000      -0.07780000
H       -1.32660000       2.07890000       1.29480000
H       -1.21280000       3.09110000      -1.59850000
H       -2.40050000       3.62020000      -0.43340000
H       -0.47390000       5.22290000      -0.71160000
H       -0.77960000       4.73510000       0.95090000
H        1.64350000       4.82880000       0.41240000
H        1.13390000       2.88400000      -1.84060000
H        2.69610000       3.11370000      -1.01510000
H        2.11270000       1.20140000       0.46080000
