23
Properties=species:S:1:pos:R:3 gdb_115797=T pbc="F F F"
C        0.13190000       1.50990000      -0.07690000
C        0.01540000      -0.01510000       0.00470000
C       -1.43030000      -0.52720000       0.02800000
C       -2.25260000      -0.20870000      -1.25100000
C       -3.29860000      -1.34000000      -1.37690000
C       -2.64810000      -2.53510000      -0.69510000
C       -3.43100000      -3.79080000      -0.42820000
O       -1.27780000      -2.71730000      -1.10900000
C       -1.54130000      -2.03870000       0.13240000
H        1.17940000       1.82670000      -0.06490000
H       -0.32030000       1.89960000      -0.99460000
H       -0.37050000       1.99170000       0.76990000
H        0.53220000      -0.47660000      -0.84590000
H        0.53250000      -0.36850000       0.90660000
H       -1.94040000      -0.10350000       0.90690000
H       -2.71340000       0.78120000      -1.21750000
H       -1.58540000      -0.23060000      -2.11700000
H       -4.22330000      -1.09050000      -0.84100000
H       -3.57260000      -1.54800000      -2.41670000
H       -3.76530000      -4.24590000      -1.36730000
H       -2.81800000      -4.52300000       0.10330000
H       -4.32090000      -3.57440000       0.17270000
H       -1.19690000      -2.55810000       1.02540000
