23
Properties=species:S:1:pos:R:3 gdb_117682=T pbc="F F F"
C        1.45640000       0.87020000      -0.65830000
O        0.66200000      -0.06400000       0.03810000
C       -0.27420000      -0.76750000      -0.75600000
C        0.12510000      -2.23930000      -0.99070000
C        0.30620000      -2.94150000       0.36010000
O       -1.01890000      -2.77180000      -1.67490000
C        1.32940000      -2.33480000      -1.91970000
C        2.75720000      -2.45660000      -1.45540000
C        2.09110000      -3.62630000      -2.13410000
H        2.09950000       0.39490000      -1.41150000
H        0.84110000       1.63470000      -1.15670000
H        2.09200000       1.36390000       0.08180000
H       -1.23630000      -0.76280000      -0.22920000
H       -0.42690000      -0.27840000      -1.72720000
H       -0.65160000      -2.93700000       0.88720000
H        0.61470000      -3.98530000       0.24330000
H        1.04100000      -2.42080000       0.97830000
H       -0.75720000      -3.62160000      -2.04460000
H        1.18100000      -1.75050000      -2.82470000
H        3.52020000      -1.90910000      -1.99780000
H        2.94330000      -2.53740000      -0.39120000
H        1.84970000      -4.48810000      -1.52130000
H        2.38750000      -3.87570000      -3.14690000
