19
Properties=species:S:1:pos:R:3 gdb_70450=T pbc="F F F"
O       -0.09570000       1.36280000      -0.16510000
C       -0.04870000      -0.01160000      -0.00000000
C       -0.32030000      -0.97730000      -1.11920000
C       -1.21390000      -0.98260000       0.10390000
C       -0.51620000      -1.73190000       1.24660000
C        0.65460000      -0.69020000       1.19180000
C        2.07690000      -1.15560000       1.02520000
C        2.59510000      -2.38310000       1.64250000
O        2.30670000      -2.33460000       0.24290000
H        0.53880000       1.60960000      -0.84600000
H       -0.76930000      -0.51130000      -1.99130000
H        0.34350000      -1.81060000      -1.32880000
H       -2.27530000      -0.78300000       0.03190000
H       -1.05850000      -1.70670000       2.19370000
H       -0.23550000      -2.76350000       1.01780000
H        0.60580000      -0.01780000       2.05540000
H        2.79690000      -0.35810000       0.82630000
H        3.65080000      -2.45980000       1.89840000
H        1.92730000      -3.00770000       2.23400000
