15
Properties=species:S:1:pos:R:3 gdb_43129=T pbc="F F F"
O       -0.00400000      -0.02150000      -0.05370000
C       -0.03100000       1.17520000      -0.02350000
C       -1.21110000       2.14540000       0.06760000
C       -1.27900000       2.74350000       1.49380000
C       -0.06790000       3.72290000       1.48240000
C        0.48630000       3.51810000       0.05150000
O       -0.68910000       3.22650000      -0.73150000
C        1.18710000       2.16020000      -0.03510000
O        2.35120000       1.88310000      -0.07600000
H       -2.14140000       1.77080000      -0.35520000
H       -2.22280000       3.27460000       1.63030000
H       -1.20580000       1.97520000       2.26740000
H       -0.38830000       4.75810000       1.61290000
H        0.67690000       3.49760000       2.24960000
H        1.04240000       4.34540000      -0.38530000
