19
Properties=species:S:1:pos:R:3 gdb_9387=T pbc="F F F"
C        0.00260000       1.50700000      -0.07260000
C        0.01420000      -0.01050000      -0.01470000
O        0.67740000      -0.50020000      -1.16740000
C        0.74570000      -1.90280000      -1.21850000
C        1.51360000      -2.27920000      -2.49850000
C        2.96010000      -1.75090000      -2.48720000
C        1.47930000      -3.73240000      -2.68190000
N        1.45650000      -4.88050000      -2.81260000
H        1.02340000       1.89880000      -0.09640000
H       -0.51940000       1.85310000      -0.96910000
H       -0.50590000       1.91590000       0.80530000
H        0.53030000      -0.36230000       0.89380000
H       -1.01390000      -0.40650000       0.02380000
H        1.26870000      -2.30920000      -0.33690000
H       -0.26160000      -2.34790000      -1.23930000
H        0.97600000      -1.82690000      -3.34090000
H        2.94200000      -0.67090000      -2.33330000
H        3.53250000      -2.21190000      -1.67690000
H        3.46400000      -1.97110000      -3.43100000
