19
Properties=species:S:1:pos:R:3 gdb_84045=T pbc="F F F"
C       -0.19300000       1.58960000       0.06910000
C        0.02760000       0.06970000       0.01320000
C        0.82450000      -0.40190000      -1.18500000
C        1.82910000      -1.23170000      -0.85060000
C        2.73070000      -1.87100000      -1.73580000
C        3.51060000      -2.44250000      -2.45530000
C        1.91650000      -1.39090000       0.64130000
C        2.25070000      -0.11710000       1.38850000
C        0.80880000      -0.51640000       1.19570000
H        0.75890000       2.12620000       0.12220000
H       -0.72940000       1.94130000      -0.81830000
H       -0.78510000       1.86250000       0.94840000
H       -0.96670000      -0.40270000      -0.01970000
H        0.60340000      -0.08250000      -2.19700000
H        4.19370000      -2.93680000      -3.10040000
H        2.18710000      -2.35170000       1.06290000
H        2.65280000      -0.21670000       2.39140000
H        2.66080000       0.70960000       0.81780000
H        0.25290000      -0.82300000       2.07390000
