17
Properties=species:S:1:pos:R:3 gdb_19022=T pbc="F F F"
C       -0.13850000       1.31010000       0.05990000
N        0.08760000      -0.12370000      -0.09830000
C        0.83500000      -0.47180000      -1.31070000
C        1.50210000      -0.50240000       0.03620000
C        1.59290000      -2.05140000      -0.03820000
O        0.52710000      -2.80230000       0.56150000
C       -0.21880000      -2.81940000      -0.68530000
C        0.88670000      -2.01580000      -1.41130000
H        0.67950000       1.94000000      -0.32930000
H       -1.05980000       1.58480000      -0.46310000
H       -0.26710000       1.53400000       1.12310000
H        0.93500000       0.24360000      -2.11860000
H        2.20550000       0.18730000       0.48890000
H        2.58550000      -2.47580000       0.13560000
H       -0.34440000      -3.84550000      -1.05070000
H       -1.18900000      -2.32590000      -0.58720000
H        1.33600000      -2.42930000      -2.31210000
