14
Properties=species:S:1:pos:R:3 gdb_27341=T pbc="F F F"
O       -0.12940000       1.35090000       0.01080000
C        0.03050000       0.00660000       0.00280000
C        1.21180000      -0.67030000      -0.00750000
C        1.27120000      -2.12110000      -0.01520000
O        2.30790000      -2.77330000      -0.02560000
C       -0.06580000      -2.76910000      -0.01170000
O       -0.03840000      -4.12540000      -0.01950000
C       -1.20220000      -2.03390000      -0.00140000
N       -1.15590000      -0.64910000       0.00590000
H        0.74010000       1.76490000       0.00820000
H        2.15210000      -0.13140000      -0.01000000
H       -0.93900000      -4.46790000      -0.01660000
H       -2.19590000      -2.46580000       0.00160000
H       -2.00280000      -0.10570000       0.01360000
