17
Properties=species:S:1:pos:R:3 gdb_15546=T pbc="F F F"
C       -0.02060000       1.62160000      -0.00080000
C       -0.00250000       0.08510000       0.01550000
C        0.73830000      -0.51100000      -1.15700000
C        1.78730000      -1.23050000      -0.77140000
C        1.91490000      -1.26500000       0.72550000
N        0.75510000      -0.47590000       1.14770000
C        0.34940000      -0.45300000       2.43920000
O        0.94200000      -0.98250000       3.35890000
H        0.99880000       2.01680000      -0.02920000
H       -0.56000000       1.98460000      -0.88190000
H       -0.52240000       2.01720000       0.88710000
H       -1.04250000      -0.27400000       0.04400000
H        0.42570000      -0.32460000      -2.17690000
H        2.48570000      -1.74230000      -1.42130000
H        1.86550000      -2.27760000       1.14640000
H        2.85580000      -0.82570000       1.08530000
H       -0.59760000       0.10780000       2.57420000
