19
Properties=species:S:1:pos:R:3 gdb_43078=T pbc="F F F"
O       -0.02450000       0.02040000      -0.01360000
C       -0.03710000       1.22370000      -0.00060000
C       -1.27450000       2.13340000      -0.00690000
C       -1.49760000       2.65410000       1.44350000
C       -0.36290000       3.67090000       1.17470000
C        1.02860000       3.00780000       1.32570000
C        1.16410000       2.17710000       0.01660000
C        0.70780000       3.21150000      -1.03830000
C       -0.63700000       3.51730000      -0.36980000
H       -2.11350000       1.71340000      -0.56180000
H       -2.47200000       3.14180000       1.53560000
H       -1.37390000       1.94350000       2.26680000
H       -0.43170000       4.65290000       1.64440000
H        1.82080000       3.76330000       1.35390000
H        1.11300000       2.40050000       2.23200000
H        2.12130000       1.67850000      -0.12860000
H        1.37380000       4.07840000      -1.09690000
H        0.59950000       2.78330000      -2.04070000
H       -1.29250000       4.25300000      -0.83290000
