18
Properties=species:S:1:pos:R:3 gdb_127841=T pbc="F F F"
C       -0.07560000       1.40130000      -0.08510000
N       -0.00990000      -0.04550000      -0.02200000
C        0.58860000      -0.58230000       0.97960000
C        1.24090000       0.05070000       2.11240000
C        1.82270000      -0.69720000       3.07920000
C        1.78600000      -2.11800000       2.96900000
N        1.21210000      -2.72910000       1.96950000
N        0.63970000      -1.99300000       1.01820000
C        0.01540000      -2.72990000      -0.07130000
H        0.91740000       1.87690000      -0.12980000
H       -0.61400000       1.69300000      -0.99110000
H       -0.61090000       1.84680000       0.76880000
H        1.24400000       1.13200000       2.15380000
H        2.31320000      -0.23690000       3.93070000
H        2.23600000      -2.76280000       3.71450000
H        0.15760000      -3.78970000       0.13140000
H       -1.04680000      -2.47810000      -0.13150000
H        0.47080000      -2.44480000      -1.02340000
