14
Properties=species:S:1:pos:R:3 gdb_50054=T pbc="F F F"
O        0.09120000       0.39830000      -0.74850000
C        0.13610000       1.51650000      -0.30510000
N        1.17030000       2.00200000       0.49160000
C        2.56030000       1.76600000       0.21430000
C        1.99130000       3.17190000       0.16890000
C        1.83720000       3.84660000      -1.08610000
C        1.69680000       4.45000000      -2.12680000
C        1.54390000       5.11510000      -3.30230000
C        1.40670000       5.70680000      -4.34590000
H       -0.67500000       2.25810000      -0.41850000
H        3.18090000       1.48590000       1.06060000
H        2.80400000       1.29340000      -0.73280000
H        2.18750000       3.82040000       1.02020000
H        1.28680000       6.22460000      -5.26540000
