17
Properties=species:S:1:pos:R:3 gdb_8600=T pbc="F F F"
C       -0.06140000       1.56200000       0.00700000
N        0.03960000       0.12100000       0.06480000
C       -1.19620000      -0.65620000       0.44700000
C       -0.24290000      -1.59270000       1.20850000
C        0.51710000      -2.33150000       2.34070000
C        1.52760000      -1.84600000       1.21170000
O        0.59440000      -2.35050000       0.21910000
C        0.77450000      -0.46750000       1.21210000
H        0.92600000       1.98860000      -0.19770000
H       -0.72740000       1.85390000      -0.81190000
H       -0.44800000       2.02030000       0.93850000
H       -1.86870000      -0.09250000       1.11110000
H       -1.75070000      -1.08620000      -0.39120000
H        0.54460000      -1.85380000       3.32360000
H        0.39930000      -3.41450000       2.38650000
H        2.58170000      -2.11660000       1.10330000
H        0.87560000       0.18030000       2.09020000
