17
Properties=species:S:1:pos:R:3 gdb_48942=T pbc="F F F"
O       -0.71660000       0.95060000       0.59760000
C        0.30060000       0.80670000      -0.03390000
C        1.40730000       1.81580000      -0.06460000
C        1.65780000       2.74150000       1.14970000
C        2.08750000       3.87730000       0.18770000
C        3.48580000       3.62030000      -0.44220000
C        2.86280000       2.53960000      -1.35610000
O        2.62450000       1.30200000      -0.64390000
C        1.44600000       3.07420000      -1.00730000
H        0.48670000      -0.08640000      -0.67020000
H        0.69870000       2.96040000       1.62740000
H        2.37560000       2.38680000       1.89370000
H        1.82440000       4.90050000       0.45160000
H        3.80780000       4.47990000      -1.03890000
H        4.30180000       3.30540000       0.21360000
H        3.27300000       2.36260000      -2.35160000
H        0.66200000       3.39410000      -1.68790000
