21
Properties=species:S:1:pos:R:3 gdb_60962=T pbc="F F F"
C       -0.03370000       1.57740000       0.08070000
C        0.01340000       0.04610000       0.01190000
C        0.68080000      -0.53170000       1.25290000
O        1.21720000      -1.61080000       1.29730000
C       -1.39770000      -0.54380000      -0.13390000
C       -1.59760000      -2.07070000      -0.19350000
C       -2.57020000      -1.84820000       0.98710000
C       -2.35780000      -2.62060000       2.27140000
O       -2.15960000      -0.45480000       1.09450000
H        0.96450000       2.00460000       0.21970000
H       -0.45200000       1.99420000      -0.83990000
H       -0.66380000       1.90340000       0.91450000
H        0.59550000      -0.28970000      -0.85550000
H        0.63340000       0.11780000       2.15500000
H       -1.91260000      -0.01100000      -0.94750000
H       -2.02300000      -2.46640000      -1.11670000
H       -0.70530000      -2.63720000       0.07760000
H       -3.62520000      -1.89810000       0.68270000
H       -1.30410000      -2.61010000       2.56370000
H       -2.95070000      -2.18490000       3.08210000
H       -2.67290000      -3.66190000       2.14140000
