18
Properties=species:S:1:pos:R:3 gdb_93552=T pbc="F F F"
C        0.20690000       1.57090000      -0.06730000
C       -0.06350000       0.06640000      -0.02430000
O        0.51180000      -0.47490000      -1.20370000
C        0.23390000      -1.83360000      -1.44700000
C        1.27250000      -2.79080000      -0.86740000
O        1.70810000      -3.73210000      -1.49870000
N        1.69250000      -2.55200000       0.42470000
C        1.24080000      -1.63770000       1.37940000
C        0.47560000      -0.55240000       1.23770000
H        1.28360000       1.76060000      -0.05060000
H       -0.21190000       1.99980000      -0.98100000
H       -0.24880000       2.06670000       0.79450000
H       -1.15870000      -0.08750000      -0.06090000
H       -0.76100000      -2.11720000      -1.06730000
H        0.24440000      -1.99410000      -2.52730000
H        2.35630000      -3.24470000       0.74050000
H        1.57630000      -1.90720000       2.37580000
H        0.22420000      -0.02550000       2.15350000
