15
Properties=species:S:1:pos:R:3 gdb_66888=T pbc="F F F"
N       -0.19680000       1.42820000      -0.11380000
C       -0.02590000       0.03300000       0.01290000
C       -0.23230000      -0.88450000      -1.23080000
N        0.66040000      -2.02240000      -1.41240000
C        0.65720000      -2.61030000      -0.28600000
N       -0.15680000      -1.99900000       0.75750000
C       -1.07640000      -1.10420000      -0.03760000
C        0.61540000      -0.74880000       1.09120000
N        1.35370000      -0.45470000       2.06230000
H       -0.22200000       1.86800000       0.80110000
H        0.56570000       1.84790000      -0.63540000
H       -0.59510000      -0.37330000      -2.11280000
H        1.25960000      -3.47750000      -0.04190000
H       -2.14630000      -1.09100000       0.11780000
H        1.48780000      -1.25430000       2.68330000
