19
Properties=species:S:1:pos:R:3 gdb_89966=T pbc="F F F"
C       -0.89450000       1.12670000       0.29270000
C        0.09640000       0.00430000       0.01380000
C        0.89250000      -0.02620000      -1.32960000
C        2.20160000      -0.35440000      -0.56440000
C        2.85290000      -1.76030000      -0.60490000
C        4.14930000      -0.97730000      -0.89180000
O        3.42830000       0.27520000      -0.92910000
C        1.46330000       0.07340000       0.72670000
O        1.82080000       0.45280000       1.80370000
H       -0.44350000       2.10420000       0.09410000
H       -1.78800000       1.03110000      -0.33200000
H       -1.20620000       1.11060000       1.34130000
H       -0.36510000      -0.97150000       0.21250000
H        0.57640000      -0.74720000      -2.08580000
H        0.96070000       0.96780000      -1.78140000
H        2.82940000      -2.32510000       0.32800000
H        2.50100000      -2.38870000      -1.42500000
H        4.89010000      -0.99250000      -0.08480000
H        4.64700000      -1.18820000      -1.84450000
