16
Properties=species:S:1:pos:R:3 gdb_49588=T pbc="F F F"
O       -0.48890000       0.68330000      -0.46760000
C        0.24900000       1.02760000       0.42030000
C        1.36220000       2.04120000       0.23910000
C        1.47980000       2.76820000      -1.09590000
C        0.35320000       3.68720000      -1.31170000
N        1.46800000       4.15270000      -0.44920000
C        1.27620000       3.46350000       0.88340000
C        0.02810000       3.88590000       1.61330000
O       -0.82660000       3.12860000       2.00040000
H        0.18510000       0.58410000       1.43510000
H        2.29690000       1.56210000       0.54870000
H        2.19350000       2.52420000      -1.87420000
H        0.32340000       4.22340000      -2.25410000
H       -0.61980000       3.46890000      -0.88170000
H        2.14000000       3.69470000       1.51630000
H       -0.05730000       4.98530000       1.75930000
