18
Properties=species:S:1:pos:R:3 gdb_23350=T pbc="F F F"
O       -0.14610000       1.16740000       0.40110000
N       -0.00610000      -0.19570000       0.07010000
C       -1.13700000      -0.73330000      -0.11190000
C       -2.57490000      -0.26100000      -0.14730000
C       -2.91760000      -1.60300000      -0.88380000
C       -1.48660000      -2.13980000      -0.54410000
C       -4.10460000      -2.37160000      -0.37120000
C       -4.12000000      -3.83340000      -0.24150000
O       -3.97050000      -2.99610000       0.90900000
H        0.77080000       1.44630000       0.49460000
H       -3.02130000      -0.20160000       0.85110000
H       -2.76430000       0.67610000      -0.67510000
H       -3.03790000      -1.43520000      -1.95850000
H       -0.89910000      -2.57330000      -1.35600000
H       -1.51210000      -2.83500000       0.30140000
H       -5.06550000      -1.87190000      -0.51280000
H       -5.06280000      -4.37430000      -0.30590000
H       -3.23590000      -4.40710000      -0.51610000
