19
Properties=species:S:1:pos:R:3 gdb_61791=T pbc="F F F"
C        0.13030000       1.57820000       0.08740000
C        0.01010000       0.04500000       0.01440000
C        0.76630000      -0.56360000       1.18460000
O        1.80500000      -1.16470000       1.08390000
C       -1.45810000      -0.45410000       0.03890000
O       -2.17040000       0.02770000       1.17280000
C       -2.21890000      -0.15250000      -1.26070000
C       -3.64000000      -0.67650000      -1.19030000
O       -4.61970000      -0.01630000      -1.41460000
H        1.17970000       1.88010000       0.03620000
H       -0.39410000       2.06310000      -0.74110000
H       -0.27970000       1.96340000       1.02690000
H        0.49280000      -0.32130000      -0.89810000
H        0.28140000      -0.40390000       2.17270000
H       -1.44100000      -1.54340000       0.17530000
H       -2.39180000       0.95370000       1.02400000
H       -2.25900000       0.92050000      -1.47440000
H       -1.71040000      -0.64710000      -2.09980000
H       -3.71960000      -1.75230000      -0.91170000
