16
Properties=species:S:1:pos:R:3 gdb_63411=T pbc="F F F"
C       -0.10150000       1.59110000      -0.00140000
C       -0.04810000       0.07110000      -0.01320000
O       -1.32130000      -0.52210000       0.12290000
C        0.74000000      -0.60000000      -1.17640000
N        1.70730000      -1.10110000      -0.17520000
C        2.84710000      -1.87320000      -0.32580000
O        3.55730000      -2.23740000       0.57300000
C        1.01780000      -0.55890000       0.92850000
O        1.18820000      -0.61050000       2.10860000
H        0.88680000       2.02870000      -0.17320000
H       -0.78750000       1.94600000      -0.77580000
H       -0.45870000       1.94540000       0.97110000
H       -1.63340000      -0.34740000       1.01880000
H        0.17250000      -1.39060000      -1.67080000
H        1.17760000       0.08290000      -1.90820000
H        3.02790000      -2.11410000      -1.39290000
