22
Properties=species:S:1:pos:R:3 gdb_76144=T pbc="F F F"
C        0.03410000       1.32630000      -0.32820000
C       -0.04600000      -0.15390000      -0.03190000
N        1.07530000      -1.05380000      -0.24560000
C        2.31740000      -0.84960000      -0.82020000
C        2.27760000      -0.35100000      -2.25550000
O        3.35120000      -1.12600000      -0.24580000
C        0.66830000      -0.82810000       1.12720000
C        1.57430000      -0.03950000       2.05360000
C       -0.01370000      -2.01110000       1.79090000
H        0.99960000       1.75680000      -0.05490000
H       -0.13030000       1.51810000      -1.39370000
H       -0.74620000       1.85950000       0.22530000
H       -1.00550000      -0.59370000      -0.30930000
H        3.20960000      -0.62650000      -2.75030000
H        1.42380000      -0.76040000      -2.80090000
H        2.19200000       0.74120000      -2.26890000
H        2.03330000       0.82200000       1.56720000
H        1.00570000       0.31340000       2.92070000
H        2.38720000      -0.67760000       2.40970000
H        0.73140000      -2.70370000       2.19610000
H       -0.64920000      -1.67720000       2.61830000
H       -0.63150000      -2.55890000       1.07490000
