20
Properties=species:S:1:pos:R:3 gdb_10301=T pbc="F F F"
C       -0.05220000       1.55630000       0.06710000
C       -0.05030000       0.03140000      -0.04500000
C        0.75820000      -0.51080000      -1.24660000
C        2.16260000      -0.10610000      -1.17860000
C        3.33010000       0.17240000      -1.08480000
C        0.66640000      -2.06310000      -1.33010000
C        1.22650000      -2.62120000      -2.63830000
O        1.27290000      -2.66910000      -0.19920000
H        0.96290000       1.94460000       0.19080000
H       -0.48060000       2.02130000      -0.82820000
H       -0.64580000       1.88180000       0.92680000
H        0.35060000      -0.42190000       0.86660000
H       -1.07920000      -0.33390000      -0.14990000
H        0.32300000      -0.10180000      -2.16970000
H        4.35350000       0.44990000      -1.02240000
H       -0.39540000      -2.32500000      -1.25290000
H        1.15840000      -3.71220000      -2.63330000
H        0.67020000      -2.24150000      -3.50200000
H        2.27760000      -2.33960000      -2.76190000
H        2.19660000      -2.38650000      -0.19060000
