16
Properties=species:S:1:pos:R:3 gdb_28154=T pbc="F F F"
C       -0.02020000       1.44560000       0.05980000
C       -0.00110000      -0.04730000      -0.01930000
C       -0.04130000      -0.81550000      -1.13240000
C        0.00010000      -2.21820000      -0.72010000
C        0.06420000      -2.27130000       0.62920000
C        0.07200000      -0.91900000       1.24940000
O        0.10270000      -3.56900000       1.02070000
C        0.05740000      -4.24550000      -0.17370000
N       -0.00430000      -3.50520000      -1.23780000
H        0.88020000       1.83840000       0.54960000
H       -0.07880000       1.88820000      -0.93810000
H       -0.87670000       1.81110000       0.64090000
H       -0.09480000      -0.44990000      -2.14910000
H        0.97780000      -0.70310000       1.82990000
H       -0.78220000      -0.73070000       1.91210000
H        0.07750000      -5.32150000      -0.10600000
