21
Properties=species:S:1:pos:R:3 gdb_120165=T pbc="F F F"
C        0.08080000       1.50400000      -0.02040000
C       -0.14350000       0.01820000      -0.24290000
O        0.96090000      -0.50180000      -0.96500000
C        0.90530000      -1.88320000      -1.17220000
C        0.11320000      -2.47480000      -2.38420000
C        1.16060000      -1.81100000      -3.32370000
C        1.97290000      -2.45020000      -2.14410000
O        3.33970000      -2.49940000      -1.96220000
C        1.07290000      -3.69790000      -2.28000000
H        1.00190000       1.67270000       0.54480000
H        0.16510000       2.02760000      -0.97700000
H       -0.75440000       1.93590000       0.53890000
H       -0.24050000      -0.50780000       0.72120000
H       -1.07780000      -0.15340000      -0.80000000
H        0.78190000      -2.42030000      -0.22000000
H       -0.96460000      -2.50740000      -2.52090000
H        1.29490000      -2.27570000      -4.30340000
H        1.14790000      -0.72270000      -3.37780000
H        3.64630000      -1.60200000      -1.78970000
H        0.97660000      -4.33590000      -1.39690000
H        1.19890000      -4.28260000      -3.19300000
