17
Properties=species:S:1:pos:R:3 gdb_31268=T pbc="F F F"
C       -0.09550000       1.34460000      -0.01730000
N       -0.31130000      -0.08470000      -0.22170000
C        0.51280000      -0.73470000      -1.13200000
C        0.95400000      -2.02270000      -1.12720000
O        0.85950000      -3.01820000      -0.23770000
C        0.05320000      -4.13230000      -0.65070000
O        1.68830000      -2.22570000      -2.28160000
C        1.64790000      -1.03170000      -2.90300000
N        0.97990000      -0.11270000      -2.28260000
H        0.88970000       1.58730000       0.41030000
H       -0.18170000       1.85840000      -0.97590000
H       -0.87200000       1.72370000       0.65180000
H       -0.37390000      -0.60130000       0.64540000
H       -0.96240000      -3.80330000      -0.89830000
H        0.49780000      -4.63090000      -1.51810000
H        0.02620000      -4.82220000       0.19420000
H        2.16530000      -0.95310000      -3.84610000
