11
Properties=species:S:1:pos:R:3 gdb_2821=T pbc="F F F"
O       -0.26400000       0.31870000       0.75910000
C        0.28230000       0.76350000      -0.21670000
C        1.38280000       1.77570000      -0.14200000
O        2.30050000       1.77360000      -1.23490000
C        1.43400000       2.90010000      -1.12090000
C        0.44000000       3.09900000      -2.14130000
C       -0.38010000       3.31210000      -2.99320000
H        0.02000000       0.45590000      -1.24980000
H        1.80930000       1.93370000       0.84750000
H        1.92720000       3.80760000      -0.77310000
H       -1.10700000       3.49130000      -3.74720000
