23
Properties=species:S:1:pos:R:3 gdb_100110=T pbc="F F F"
C        0.05790000       1.57850000       0.38050000
C        0.05160000       0.08660000       0.02180000
C        0.78270000      -0.74210000       1.08420000
C       -1.39560000      -0.40770000      -0.13450000
O       -2.06650000      -0.25980000       1.10760000
O        0.57800000      -0.14130000      -1.29810000
C        1.89600000       0.23390000      -1.54790000
C        3.01200000      -0.77220000      -1.40470000
C        2.51300000      -0.35910000      -2.77460000
H        1.06470000       1.94110000       0.60550000
H       -0.34920000       2.16760000      -0.44730000
H       -0.56600000       1.74210000       1.26210000
H        0.25490000      -0.66240000       2.03750000
H        0.80980000      -1.79680000       0.79350000
H        1.80960000      -0.39530000       1.22330000
H       -1.87840000       0.17840000      -0.92980000
H       -1.36830000      -1.45810000      -0.45910000
H       -2.97230000      -0.56020000       0.99660000
H        2.12840000       1.27380000      -1.32670000
H        3.98620000      -0.42820000      -1.07350000
H        2.73850000      -1.76330000      -1.06320000
H        1.90710000      -1.07800000      -3.31430000
H        3.13820000       0.26980000      -3.39820000
