16
Properties=species:S:1:pos:R:3 gdb_22011=T pbc="F F F"
C        0.02110000       1.47500000      -0.02270000
C       -0.05820000      -0.02190000       0.01480000
C       -1.18690000      -0.74730000      -0.15000000
C       -1.13490000      -2.19160000      -0.09220000
C        0.20240000      -2.73500000       0.15100000
N        1.27030000      -2.02080000       0.30600000
N        1.13210000      -0.68110000       0.23700000
N       -2.21960000      -2.88200000      -0.25110000
O       -1.95150000      -4.26850000      -0.15890000
H        0.69400000       1.81640000      -0.81830000
H       -0.96590000       1.90280000      -0.20300000
H        0.40130000       1.87560000       0.92460000
H       -2.13670000      -0.25880000      -0.32610000
H        0.33790000      -3.80640000       0.21030000
H        1.99040000      -0.17220000       0.36430000
H       -2.82600000      -4.64550000      -0.29310000
