23
Properties=species:S:1:pos:R:3 gdb_107239=T pbc="F F F"
C        2.48120000       1.77670000       0.35930000
C        1.23950000       1.47820000      -0.48720000
C        1.39970000       0.36800000      -1.49830000
C        2.31560000      -0.81660000      -1.32720000
C        2.50590000       0.10270000      -2.50870000
C        1.45590000      -0.09040000      -3.63250000
C        0.44650000      -1.17120000      -3.34240000
C        0.33150000       0.15950000      -2.64090000
C       -0.88500000       1.03230000      -2.77800000
H        2.74450000       0.93530000       1.00730000
H        3.34900000       2.00160000      -0.27040000
H        2.30510000       2.64430000       1.00220000
H        0.40020000       1.23660000       0.18090000
H        0.94610000       2.39720000      -1.01080000
H        3.06870000      -0.69070000      -0.55560000
H        1.98710000      -1.84500000      -1.42650000
H        3.42960000       0.64860000      -2.65870000
H        1.57800000       0.32770000      -4.62440000
H       -0.28970000      -1.30770000      -4.13030000
H        0.70270000      -2.09790000      -2.84180000
H       -1.63840000       0.80150000      -2.01420000
H       -0.64290000       2.09710000      -2.69080000
H       -1.35460000       0.88240000      -3.75580000
