19
Properties=species:S:1:pos:R:3 gdb_81393=T pbc="F F F"
C       -0.20360000       1.53220000      -0.00060000
C        0.02120000       0.02620000       0.01640000
C        1.15560000      -0.58830000      -0.85250000
C        2.15840000      -0.19000000       0.25370000
C        0.93560000      -0.56770000       1.14660000
C        0.80940000      -2.06930000       0.80230000
O        0.97870000      -2.00330000      -0.64320000
C        1.80010000      -2.94000000       1.42290000
C        2.60170000      -3.65660000       1.96020000
H        0.71500000       2.10940000       0.13270000
H       -0.65340000       1.84110000      -0.95050000
H       -0.89380000       1.82380000       0.79830000
H       -0.93670000      -0.49000000      -0.11280000
H        1.29350000      -0.39550000      -1.91570000
H        3.06270000      -0.79370000       0.34420000
H        2.39810000       0.87150000       0.28040000
H        0.84890000      -0.29230000       2.19680000
H       -0.19610000      -2.44970000       1.02350000
H        3.31170000      -4.29410000       2.42650000
