21
Properties=species:S:1:pos:R:3 gdb_61411=T pbc="F F F"
C       -0.09380000       1.52630000       0.20810000
C        0.02720000       0.00550000      -0.00690000
C        0.73980000      -0.33580000      -1.31610000
C       -0.13110000      -0.16530000      -2.55240000
C        0.57420000      -0.30980000      -3.88890000
O       -1.31920000       0.06090000      -2.48090000
C        0.67680000      -0.70570000       1.18280000
C        0.10560000      -0.41450000       2.56130000
O        1.59480000      -1.48350000       1.04250000
H        0.89360000       1.99110000       0.30880000
H       -0.60110000       1.97660000      -0.64830000
H       -0.67540000       1.76860000       1.10110000
H       -0.99750000      -0.38770000      -0.07430000
H        1.65490000       0.25860000      -1.43720000
H        1.09070000      -1.37510000      -1.28880000
H        1.15290000      -1.23900000      -3.92520000
H       -0.15540000      -0.29100000      -4.69920000
H        1.28750000       0.51200000      -4.02280000
H       -0.98780000      -0.36940000       2.54640000
H        0.44340000      -1.18150000       3.25930000
H        0.46350000       0.55970000       2.91330000
