27
Properties=species:S:1:pos:R:3 gdb_101808=T pbc="F F F"
C        0.22090000       1.54060000      -0.02780000
C        0.03830000       0.01710000       0.02630000
C        0.77710000      -0.57010000       1.23670000
C       -1.44460000      -0.39930000       0.04630000
C       -2.23270000      -0.03090000      -1.21780000
C       -3.65440000      -0.61810000      -1.27400000
C       -4.56990000      -0.08230000      -0.16510000
C       -4.27010000      -0.36280000      -2.65120000
O       -5.51410000      -1.04580000      -2.72790000
H        1.28320000       1.80730000      -0.03340000
H       -0.23310000       1.97910000      -0.92110000
H       -0.23520000       2.01880000       0.84790000
H        0.49060000      -0.40890000      -0.88170000
H        0.36340000      -0.18080000       2.17490000
H        0.69300000      -1.66170000       1.26540000
H        1.84210000      -0.31550000       1.21480000
H       -1.49790000      -1.48780000       0.18680000
H       -1.92170000       0.04420000       0.93020000
H       -2.29690000       1.06120000      -1.31470000
H       -1.66990000      -0.38250000      -2.09420000
H       -3.58140000      -1.70960000      -1.16360000
H       -4.61660000       1.01370000      -0.19630000
H       -5.58400000      -0.46690000      -0.29400000
H       -4.21810000      -0.37280000       0.82870000
H       -4.40430000       0.72240000      -2.79810000
H       -3.58010000      -0.71680000      -3.43420000
H       -5.93200000      -0.81790000      -3.56290000
