14
Properties=species:S:1:pos:R:3 gdb_125022=T pbc="F F F"
C        0.03150000       1.52900000      -0.03780000
C        0.00510000       0.02940000      -0.05460000
C       -1.13300000      -0.72800000       0.02710000
N       -2.38240000      -0.25610000       0.13310000
C       -1.06800000      -2.22720000       0.00300000
O       -2.09560000      -2.87350000       0.07770000
O        0.12660000      -2.76420000      -0.09990000
N        1.44000000      -1.80850000      -0.19340000
N        1.20580000      -0.62850000      -0.15950000
H        1.06030000       1.88330000      -0.11620000
H       -0.53810000       1.95340000      -0.87420000
H       -0.39580000       1.93110000       0.88960000
H       -2.59410000       0.72470000       0.16450000
H       -3.11600000      -0.94870000       0.18440000
