15
Properties=species:S:1:pos:R:3 gdb_32320=T pbc="F F F"
O        0.01910000       1.43310000       0.00830000
C       -0.02070000       0.02720000       0.00190000
C       -1.44480000      -0.45960000       0.01280000
N       -2.44390000       0.36710000       0.02330000
C       -3.72200000      -0.12900000       0.03290000
C       -3.97360000      -1.46180000       0.03180000
N       -2.91920000      -2.33140000       0.02070000
C       -1.58770000      -1.92790000       0.01020000
O       -0.66740000      -2.73010000      -0.00010000
H        0.94440000       1.69350000      -0.00440000
H        0.47510000      -0.40870000      -0.88210000
H        0.49130000      -0.41720000       0.87220000
H       -4.52930000       0.59230000       0.04160000
H       -4.96680000      -1.89270000       0.03930000
H       -3.06760000      -3.33160000       0.01940000
