18
Properties=species:S:1:pos:R:3 gdb_1794=T pbc="F F F"
C       -0.31170000       1.36840000       0.11000000
N       -0.02080000      -0.05380000       0.22580000
C        1.30770000      -0.50650000      -0.18410000
C        0.91160000      -0.54990000       1.25320000
C        1.55360000       0.37580000       2.26640000
C        0.41080000      -1.86250000       1.83510000
O       -0.73710000      -1.65440000       2.64150000
H        0.56560000       2.02680000       0.20000000
H       -0.76470000       1.55170000      -0.86980000
H       -1.03720000       1.65890000       0.87680000
H        1.34580000      -1.41210000      -0.78560000
H        2.02940000       0.25700000      -0.47390000
H        1.82190000       1.34670000       1.84560000
H        0.87490000       0.53400000       3.11050000
H        2.47000000      -0.07840000       2.65840000
H        0.20000000      -2.56760000       1.01800000
H        1.16830000      -2.31320000       2.48580000
H       -1.38580000      -1.24200000       2.05820000
