18
Properties=species:S:1:pos:R:3 gdb_23400=T pbc="F F F"
O       -0.14700000       1.32400000      -0.02390000
N       -0.01090000      -0.08420000      -0.01780000
C       -1.13460000      -0.65960000       0.01790000
C       -2.58480000      -0.20000000       0.03960000
C       -3.07910000      -0.91360000      -1.27020000
C       -2.26790000      -2.25140000      -1.28150000
C       -1.40090000      -2.15360000       0.02420000
C       -2.37560000      -2.20230000       1.19450000
C       -3.06710000      -1.05550000       1.20480000
H        0.77210000       1.61050000      -0.04370000
H       -2.77280000       0.86860000       0.09020000
H       -4.15940000      -1.07330000      -1.25040000
H       -2.84300000      -0.30220000      -2.14540000
H       -2.90830000      -3.13610000      -1.27120000
H       -1.61980000      -2.31130000      -2.16020000
H       -0.53760000      -2.81450000       0.06340000
H       -2.51620000      -3.06320000       1.83560000
H       -3.88770000      -0.78610000       1.85750000
