16
Properties=species:S:1:pos:R:3 gdb_47078=T pbc="F F F"
O        0.01960000      -0.04320000       0.01580000
C        0.02450000       1.16710000      -0.04010000
C       -1.21190000       2.08010000       0.19580000
O       -0.73150000       3.41400000       0.38070000
C        0.49720000       3.50310000      -0.34030000
C        1.58310000       4.40750000       0.28440000
N        2.78760000       3.54000000       0.23550000
C        2.39040000       2.23070000       0.11670000
C        1.09590000       2.12320000      -0.25310000
H       -1.88240000       2.01630000      -0.67680000
H       -1.76910000       1.76900000       1.08310000
H        0.28550000       3.81380000      -1.37700000
H        1.74850000       5.32940000      -0.27560000
H        1.31780000       4.65710000       1.32020000
H        3.56990000       3.75720000       0.83390000
H        3.08920000       1.43450000       0.34260000
