16
Properties=species:S:1:pos:R:3 gdb_1911=T pbc="F F F"
C        0.04310000       1.53380000       0.01200000
C       -0.05190000       0.03960000       0.07510000
C       -1.34580000      -0.79060000       0.01170000
C       -0.68310000      -1.81590000       0.99960000
O       -0.44010000      -3.12760000       0.53380000
C        0.58040000      -0.95730000       1.01370000
N        1.08610000      -0.77080000      -0.34310000
H        1.06110000       1.85980000       0.24010000
H       -0.20970000       1.89940000      -0.99050000
H       -0.64540000       2.00440000       0.72230000
H       -2.21650000      -0.29320000       0.44810000
H       -1.61100000      -1.17800000      -0.97830000
H       -1.19270000      -1.82420000       1.97230000
H       -1.28710000      -3.57250000       0.42810000
H        1.26290000      -0.82400000       1.84550000
H        0.83120000      -1.55310000      -0.94400000
