19
Properties=species:S:1:pos:R:3 gdb_42365=T pbc="F F F"
O       -0.00310000       2.57050000      -1.82060000
C       -0.02690000       1.76960000      -0.91890000
C        1.15410000       1.71440000       0.07780000
C        1.51700000       0.38640000       0.54840000
C        1.81280000      -0.71630000       0.92500000
C       -1.20370000       0.83710000      -0.68070000
C       -1.82410000       1.01110000       0.69690000
C       -2.72140000       2.19320000       0.97480000
C       -3.30510000       0.80480000       0.88460000
H        1.99950000       2.21200000      -0.40620000
H        0.86610000       2.34340000       0.93250000
H        2.08140000      -1.68820000       1.25830000
H       -1.93640000       1.04310000      -1.46560000
H       -0.85660000      -0.19710000      -0.79740000
H       -1.19380000       0.68070000       1.51690000
H       -2.66650000       2.66810000       1.94800000
H       -2.91920000       2.87820000       0.15680000
H       -3.89820000       0.56000000       0.00970000
H       -3.64350000       0.32680000       1.79710000
