13
Properties=species:S:1:pos:R:3 gdb_24953=T pbc="F F F"
O       -0.04390000      -0.03040000      -0.05600000
C       -0.02090000       1.17900000      -0.05910000
N       -1.14000000       2.04760000      -0.05560000
C       -0.66590000       3.33070000       0.11110000
C        0.69020000       3.34880000       0.09140000
N        1.09760000       2.01890000      -0.05020000
C        1.06270000       4.72480000       0.00410000
C       -0.12100000       5.40980000      -0.00310000
O       -1.21090000       4.55290000       0.03480000
H       -2.06000000       1.69230000       0.14200000
H        2.01620000       1.63520000       0.08700000
H        2.04610000       5.16580000      -0.02140000
H       -0.36660000       6.45670000       0.02950000
