20
Properties=species:S:1:pos:R:3 gdb_73861=T pbc="F F F"
C       -0.06720000       1.49590000       0.13640000
C        0.03200000       0.00740000       0.01350000
C        0.02060000      -0.74470000      -1.09540000
C       -0.09470000      -0.30740000      -2.52230000
C        0.08070000      -2.22320000      -0.77050000
C        0.50930000      -2.24070000       0.72380000
C        0.10170000      -0.84180000       1.26610000
C       -0.03750000      -3.35770000       1.48710000
N       -0.47820000      -4.24020000       2.09020000
H        0.80050000       1.90550000       0.66910000
H       -0.13150000       1.99380000      -0.83360000
H       -0.95180000       1.78260000       0.71980000
H       -0.15070000       0.77850000      -2.62530000
H        0.76170000      -0.65870000      -3.11190000
H       -0.98990000      -0.73540000      -2.99200000
H       -0.90000000      -2.69770000      -0.91170000
H        0.78600000      -2.77680000      -1.40020000
H        1.60110000      -2.31690000       0.76430000
H        0.82110000      -0.46840000       2.00320000
H       -0.87230000      -0.87680000       1.77290000
