13
Properties=species:S:1:pos:R:3 gdb_130677=T pbc="F F F"
O       -0.02730000      -0.04980000       0.00420000
C       -0.01110000       1.15920000       0.00960000
N       -1.13880000       2.01670000       0.02900000
C       -0.70060000       3.32160000       0.03020000
C        0.67460000       3.34530000       0.01130000
N        1.09110000       2.01180000      -0.00160000
C        1.02050000       4.70710000       0.01330000
N       -0.08020000       5.46820000       0.03230000
N       -1.13350000       4.59780000       0.04240000
H       -2.07390000       1.65110000       0.04160000
H        2.02710000       1.64890000      -0.01490000
H        1.99080000       5.17810000       0.00230000
H       -2.06820000       4.96460000       0.05710000
