19
Properties=species:S:1:pos:R:3 gdb_6095=T pbc="F F F"
C        0.47070000       1.34160000      -0.24430000
C       -0.11520000      -0.02850000       0.10340000
C        0.08480000      -1.04350000      -1.01560000
O        0.49740000      -0.58710000       1.26680000
C        0.15450000       0.02080000       2.49240000
C        0.57280000      -0.85120000       3.67910000
N        1.04840000      -2.07350000       3.33800000
O        0.45340000      -0.44470000       4.81840000
H        1.54730000       1.25930000      -0.42520000
H       -0.00280000       1.73760000      -1.14800000
H        0.31070000       2.06730000       0.55790000
H       -1.19440000       0.08370000       0.30180000
H        1.15210000      -1.18380000      -1.21520000
H       -0.34410000      -2.01020000      -0.73820000
H       -0.39560000      -0.70140000      -1.93670000
H        0.63570000       0.99870000       2.62630000
H       -0.93270000       0.17860000       2.56860000
H        1.15550000      -2.31150000       2.36690000
H        1.37270000      -2.69100000       4.06260000
