23
Properties=species:S:1:pos:R:3 gdb_86075=T pbc="F F F"
C       -0.07820000       1.59290000      -0.08190000
C       -0.01750000       0.06330000      -0.04360000
C        0.93140000      -0.49590000      -1.16300000
C        2.27960000      -0.69370000      -0.46410000
C        3.57820000      -0.70090000      -1.20560000
C        2.05400000      -0.77930000       0.84500000
C        2.60920000      -0.46090000       2.21620000
C        1.24050000       0.27850000       2.46780000
C        0.63430000      -0.50930000       1.24590000
H        0.92300000       2.03160000      -0.00650000
H       -0.52000000       1.93840000      -1.02250000
H       -0.68260000       1.99190000       0.73940000
H       -1.03340000      -0.32480000      -0.17390000
H        0.54680000      -1.43640000      -1.58320000
H        1.01440000       0.20200000      -2.00670000
H        3.64120000      -1.55370000      -1.89470000
H        3.69390000       0.20140000      -1.82030000
H        4.43070000      -0.76260000      -0.52300000
H        2.71380000      -1.33910000       2.86300000
H        3.53000000       0.12590000       2.27410000
H        0.76940000       0.12160000       3.44140000
H        1.32630000       1.35030000       2.27830000
H        0.09750000      -1.39540000       1.60870000
