17
Properties=species:S:1:pos:R:3 gdb_61332=T pbc="F F F"
C       -0.07970000       1.58640000      -0.03450000
C       -0.05010000       0.04710000      -0.00750000
C        0.75950000      -0.49580000       1.20780000
C        2.16260000      -0.11590000       1.18850000
C        3.33120000       0.19220000       1.16670000
C        4.71960000       0.57070000       1.11580000
O        5.53010000       0.32580000       1.97970000
C       -1.39900000      -0.51310000       0.01490000
C       -2.50960000      -0.97050000       0.06030000
H        0.93870000       1.98310000      -0.06080000
H       -0.61840000       1.94440000      -0.91480000
H       -0.58380000       1.97730000       0.85450000
H        0.45570000      -0.30440000      -0.91600000
H        0.29580000      -0.13980000       2.13640000
H        0.68580000      -1.58930000       1.23110000
H        5.00470000       1.12210000       0.19650000
H       -3.49120000      -1.37530000       0.08420000
