18
Properties=species:S:1:pos:R:3 gdb_96861=T pbc="F F F"
C       -0.12770000       1.50160000      -0.07030000
N       -0.24360000       0.05320000      -0.17970000
C        0.54420000      -0.57050000      -0.92210000
O        1.58850000      -0.14410000      -1.71860000
C        1.92990000      -1.52520000      -2.10900000
C        3.34810000      -1.87810000      -1.72330000
C        0.73270000      -2.03580000      -1.26290000
C        0.91660000      -2.98790000      -0.10240000
O        1.77870000      -3.82460000      -0.02860000
H        0.71610000       1.92590000      -0.62630000
H       -1.05340000       1.96330000      -0.43110000
H       -0.02690000       1.77150000       0.98620000
H        1.77240000      -1.63710000      -3.18560000
H        3.51910000      -1.72930000      -0.65490000
H        3.55400000      -2.92540000      -1.95640000
H        4.04480000      -1.24490000      -2.28080000
H       -0.10010000      -2.41980000      -1.86480000
H        0.15360000      -2.85960000       0.69490000
