23
Properties=species:S:1:pos:R:3 gdb_121985=T pbc="F F F"
C       -0.00230000       1.48950000       0.13910000
C       -0.10430000      -0.01550000      -0.12000000
C        0.85180000      -0.48340000      -1.20930000
O        0.69630000      -1.88130000      -1.37310000
C        1.42100000      -2.45700000      -2.45180000
C        2.90820000      -2.62340000      -2.12960000
C        0.75130000      -3.80850000      -2.73820000
C       -0.67220000      -3.66570000      -3.23160000
O       -1.13390000      -4.27760000      -4.16170000
H        1.00670000       1.77280000       0.45880000
H       -0.23890000       2.06750000      -0.76100000
H       -0.69750000       1.80010000       0.92410000
H        0.11390000      -0.57500000       0.79690000
H       -1.12590000      -0.28330000      -0.41330000
H        0.63570000       0.03530000      -2.15900000
H        1.88750000      -0.23030000      -0.93220000
H        1.31910000      -1.80880000      -3.33950000
H        3.43520000      -3.07830000      -2.97400000
H        3.38190000      -1.65990000      -1.92250000
H        3.03600000      -3.26580000      -1.25250000
H        1.31930000      -4.39090000      -3.46830000
H        0.72580000      -4.37010000      -1.79350000
H       -1.28360000      -2.93610000      -2.65880000
