15
Properties=species:S:1:pos:R:3 gdb_13585=T pbc="F F F"
C        0.33550000       1.32280000      -0.07110000
C        0.03150000      -0.15310000       0.02020000
C        0.73130000      -1.15410000      -0.86460000
N        1.01900000      -1.06910000       0.54850000
C        2.18740000      -0.79640000       1.20030000
O        2.32300000       0.01190000       2.09780000
C        3.38290000      -1.67170000       0.80170000
O        3.41890000      -2.39710000      -0.15590000
H        1.33800000       1.49740000      -0.47240000
H       -0.38940000       1.81230000      -0.72880000
H        0.28420000       1.79200000       0.91480000
H       -0.98560000      -0.39800000       0.32200000
H        0.21590000      -2.05290000      -1.19080000
H        1.48370000      -0.78160000      -1.55440000
H        4.23810000      -1.52660000       1.49370000
