18
Properties=species:S:1:pos:R:3 gdb_76157=T pbc="F F F"
C       -0.00100000       1.53390000       0.09790000
C       -0.00430000       0.02220000      -0.01910000
N       -1.16520000      -0.69770000       0.44100000
C        0.66960000      -0.67190000      -1.18690000
N        1.43520000       0.09160000      -2.13680000
C        1.32030000      -0.71630000       0.20850000
O        2.47840000       0.03390000       0.35000000
C        1.32800000      -1.94800000       0.95920000
N        1.35140000      -2.92590000       1.57620000
H        0.95410000       1.97280000      -0.19340000
H       -0.79210000       1.96770000      -0.52580000
H       -0.19800000       1.82500000       1.13500000
H       -1.30990000      -0.54780000       1.43540000
H       -2.00030000      -0.37660000      -0.04060000
H        0.17630000      -1.58070000      -1.51860000
H        1.83430000      -0.51030000      -2.84790000
H        0.87660000       0.79850000      -2.60200000
H        2.69450000       0.32100000      -0.55750000
