18
Properties=species:S:1:pos:R:3 gdb_16310=T pbc="F F F"
C       -0.25710000       1.53470000      -0.05270000
C        0.08700000       0.04420000       0.08270000
C        0.79650000      -0.48980000      -1.13230000
C        0.06520000      -0.96090000      -2.38800000
C        0.97940000      -1.92340000      -1.71800000
C        2.42420000      -1.61960000      -2.14150000
C        2.22980000      -0.22380000      -1.48890000
O        2.99730000       0.64520000      -1.17720000
H        0.65140000       2.12140000      -0.21430000
H       -0.92790000       1.70900000      -0.90040000
H       -0.74960000       1.90590000       0.85110000
H        0.72390000      -0.10260000       0.96370000
H       -0.82550000      -0.53990000       0.25530000
H       -0.99910000      -1.10820000      -2.22970000
H        0.31530000      -0.55760000      -3.36610000
H        0.64150000      -2.84620000      -1.26510000
H        3.18880000      -2.18130000      -1.59730000
H        2.64270000      -1.66060000      -3.21290000
