15
Properties=species:S:1:pos:R:3 gdb_124022=T pbc="F F F"
C        0.01130000       1.53440000       0.19270000
N        1.33370000       1.98380000      -0.24960000
C        2.34030000       1.16530000      -0.67730000
N        2.32780000      -0.11790000      -0.77400000
C        1.12070000      -0.68370000      -0.38290000
N        0.89310000      -1.99580000      -0.40460000
N       -0.37500000      -2.10810000       0.04380000
C       -0.95620000      -0.91750000       0.34810000
C       -0.00870000       0.04100000       0.08210000
H       -0.17020000       1.87250000       1.22500000
H       -0.76780000       2.00300000      -0.42890000
H        1.51580000       2.97260000      -0.23740000
H        3.24370000       1.70440000      -0.96100000
H       -0.78080000      -3.02430000       0.11950000
H       -1.96860000      -0.86010000       0.71770000
