19
Properties=species:S:1:pos:R:3 gdb_76447=T pbc="F F F"
C       -0.07190000       1.52340000      -0.02050000
C        0.08580000       0.02030000       0.04150000
C        1.43560000      -0.65170000      -0.16580000
O        2.59790000       0.11500000      -0.27080000
C        0.77510000      -0.67780000       1.18930000
C        1.34310000       0.06730000       2.37150000
O        0.13020000      -1.89880000       1.55250000
C        0.92490000      -2.96450000       1.78900000
O        0.49280000      -4.01850000       2.14880000
H        0.86370000       2.03730000       0.21220000
H       -0.37880000       1.83270000      -1.02530000
H       -0.83650000       1.87380000       0.68000000
H       -0.75160000      -0.54740000      -0.35490000
H        1.44280000      -1.58400000      -0.73010000
H        2.61510000       0.51810000      -1.14570000
H        1.85870000       0.97270000       2.05130000
H        0.54520000       0.33660000       3.07040000
H        2.06830000      -0.55360000       2.90760000
H        1.99460000      -2.75480000       1.60390000
