19
Properties=species:S:1:pos:R:3 gdb_120541=T pbc="F F F"
O       -0.18480000       1.65680000      -0.03440000
C       -0.14080000       0.26760000       0.24950000
C       -1.47130000      -0.43530000      -0.03640000
C       -1.43540000      -1.91390000       0.29860000
C       -2.61090000      -2.79820000      -0.17570000
C       -1.53240000      -3.56510000      -0.95880000
O       -0.49680000      -2.64820000      -0.54770000
C       -1.21640000      -4.97080000      -0.48190000
O       -2.03490000      -5.74340000      -0.05620000
H       -0.27500000       1.75980000      -0.98690000
H        0.66610000      -0.23530000      -0.30240000
H        0.09840000       0.19090000       1.31620000
H       -2.26640000       0.04600000       0.54690000
H       -1.72910000      -0.31760000      -1.09790000
H       -1.17270000      -2.05950000       1.35570000
H       -3.12410000      -3.38790000       0.58420000
H       -3.34310000      -2.27770000      -0.79470000
H       -1.64540000      -3.59020000      -2.05340000
H       -0.13520000      -5.22690000      -0.55140000
