18
Properties=species:S:1:pos:R:3 gdb_40060=T pbc="F F F"
C        0.03030000       1.52140000      -0.00410000
N        1.25610000       0.69750000       0.05050000
C       -0.05370000       0.04590000       0.02740000
C       -0.46680000      -0.83350000       1.22020000
C       -1.09580000      -2.01490000       0.45310000
O       -2.37550000      -1.61650000      -0.03930000
C       -2.07720000      -0.78800000      -1.17490000
C       -0.53380000      -0.78580000      -1.16280000
O       -0.28520000      -2.12690000      -0.70510000
H       -0.17260000       2.10090000       0.89250000
H       -0.21430000       2.03340000      -0.93290000
H        1.69580000       0.65940000      -0.86670000
H        0.41310000      -1.14150000       1.79020000
H       -1.18730000      -0.36010000       1.88980000
H       -1.18060000      -2.97020000       0.96880000
H       -2.47990000      -1.24900000      -2.08370000
H       -2.51040000       0.20930000      -1.04680000
H       -0.04280000      -0.59990000      -2.11820000
