23
Properties=species:S:1:pos:R:3 gdb_120949=T pbc="F F F"
C       -0.08130000       1.47200000       0.00980000
C       -0.08040000      -0.03960000       0.16740000
O       -1.35860000      -0.52810000      -0.18550000
C       -1.48020000      -1.93360000      -0.11490000
C       -1.65630000      -2.49880000       1.33970000
C       -3.06590000      -3.10390000       1.19060000
C       -2.94700000      -3.82790000      -0.18300000
C       -2.82460000      -2.37010000      -0.71300000
C       -3.82220000      -1.98440000       0.41770000
H        0.89890000       1.88410000       0.26790000
H       -0.31540000       1.74930000      -1.02200000
H       -0.83190000       1.92530000       0.66360000
H        0.68910000      -0.49540000      -0.47920000
H        0.17000000      -0.31590000       1.20470000
H       -0.63090000      -2.40000000      -0.63740000
H       -0.90260000      -3.24640000       1.60430000
H       -1.61930000      -1.69200000       2.07760000
H       -3.49610000      -3.59200000       2.06590000
H       -2.10470000      -4.51050000      -0.33700000
H       -3.87860000      -4.30460000      -0.49610000
H       -2.99470000      -2.10990000      -1.75760000
H       -4.85010000      -2.26440000       0.17630000
H       -3.78070000      -0.96400000       0.80450000
