20
Properties=species:S:1:pos:R:3 gdb_69592=T pbc="F F F"
C        0.09770000       1.55460000       0.19890000
C        0.14540000       0.06170000       0.04560000
C       -0.91000000      -0.84720000       0.62070000
C        0.53320000      -0.92070000       1.11910000
C        1.41040000      -1.92620000       0.43340000
C        2.67960000      -2.39760000       1.03600000
N        1.54730000      -3.32860000       0.84260000
C        1.22500000      -1.65650000      -1.06370000
O        0.73280000      -0.32440000      -1.17970000
H        1.10370000       1.98110000       0.13530000
H       -0.51150000       2.00110000      -0.59380000
H       -0.34030000       1.83050000       1.16180000
H       -1.63720000      -0.40230000       1.29170000
H       -1.29490000      -1.66480000       0.02040000
H        0.77090000      -0.60940000       2.13030000
H        3.54350000      -2.59410000       0.40580000
H        2.92290000      -2.07130000       2.04470000
H        1.06820000      -3.48240000       1.72680000
H        2.15350000      -1.73090000      -1.63730000
H        0.50910000      -2.37860000      -1.48060000
