15
Properties=species:S:1:pos:R:3 gdb_18749=T pbc="F F F"
O        0.21770000       1.24940000      -0.53850000
C        0.03720000      -0.03110000      -0.01460000
C        0.07650000      -0.26630000       1.54010000
C       -1.30860000      -0.93930000       1.46270000
O       -2.37950000       0.03470000       1.70510000
C       -2.44290000       0.34510000       0.36310000
N       -3.09730000       1.23240000      -0.24100000
C       -1.39600000      -0.65600000      -0.06160000
H       -0.61420000       1.73500000      -0.46260000
H        0.75710000      -0.68340000      -0.51640000
H        0.88690000      -0.92390000       1.86180000
H        0.08280000       0.64040000       2.14810000
H       -1.51080000      -1.88940000       1.95240000
H       -3.68130000       1.76890000       0.40380000
H       -1.65240000      -1.36450000      -0.84570000
