17
Properties=species:S:1:pos:R:3 gdb_72782=T pbc="F F F"
C       -0.12270000       1.56920000      -0.31210000
C       -0.01030000       0.09290000       0.03240000
N        1.14840000      -0.55530000      -0.73520000
C        1.96510000      -0.63570000       0.54220000
C        0.67350000      -0.39530000       1.29100000
C       -0.16240000      -1.19750000       1.96700000
N       -1.43460000      -1.16460000       1.36690000
C       -1.41690000      -0.54220000       0.12160000
O       -2.35870000      -0.42680000      -0.62720000
H        0.86460000       2.03720000      -0.31850000
H       -0.57050000       1.67280000      -1.30470000
H       -0.75870000       2.09370000       0.40760000
H        0.87930000      -1.49980000      -1.00520000
H        2.47990000      -1.58490000       0.71320000
H        2.69400000       0.17920000       0.56590000
H        0.04960000      -1.93960000       2.72540000
H       -2.27870000      -1.55780000       1.75140000
