19
Properties=species:S:1:pos:R:3 gdb_6973=T pbc="F F F"
C        0.15920000       1.59160000      -0.25980000
C       -0.00460000       0.10550000       0.06400000
N        0.45100000      -0.71200000      -1.07880000
C        1.37420000      -1.45560000      -0.63220000
O        1.72450000      -1.40320000       0.66910000
C        0.79260000      -0.45770000       1.29990000
C        1.63750000       0.54260000       2.08060000
C       -0.11480000      -1.26950000       2.22270000
H        1.20380000       1.84700000      -0.45860000
H       -0.41660000       1.82620000      -1.15860000
H       -0.20540000       2.22300000       0.55650000
H       -1.07330000      -0.08940000       0.21680000
H        1.94540000      -2.16550000      -1.22200000
H        2.32760000       1.07930000       1.42610000
H        1.00260000       1.27440000       2.58850000
H        2.22620000       0.01940000       2.83970000
H        0.46780000      -1.78160000       2.99380000
H       -0.83800000      -0.61070000       2.71500000
H       -0.67020000      -2.01980000       1.65210000
