15
Properties=species:S:1:pos:R:3 gdb_2770=T pbc="F F F"
O        0.32670000       1.10360000      -0.61190000
C        0.08640000      -0.11770000       0.04430000
C       -0.07710000      -0.13510000       1.58840000
C       -1.31670000      -1.04830000       1.39850000
C       -1.37430000      -0.63280000      -0.11200000
C       -2.37240000       0.47220000      -0.35500000
O       -3.19830000       0.45700000      -1.23110000
H        1.25030000       1.34520000      -0.49020000
H        0.79040000      -0.89460000      -0.28490000
H        0.75430000      -0.51560000       2.18630000
H       -0.35270000       0.85850000       1.95260000
H       -1.08570000      -2.10960000       1.50830000
H       -2.19950000      -0.82160000       2.00040000
H       -1.54280000      -1.41880000      -0.84940000
H       -2.31920000       1.31970000       0.36470000
