17
Properties=species:S:1:pos:R:3 gdb_26714=T pbc="F F F"
C        0.11230000       1.49250000      -0.00580000
C       -0.06200000       0.01690000      -0.03390000
C       -1.13640000      -0.81610000       0.03150000
C       -2.58090000      -0.44030000       0.16300000
C       -0.59900000      -2.15970000      -0.05230000
C       -1.31550000      -3.43330000      -0.02950000
O       -0.78810000      -4.52290000      -0.10480000
C        0.75600000      -2.01810000      -0.16120000
O        1.09740000      -0.71940000      -0.15200000
H        0.73790000       1.80530000       0.83770000
H        0.59120000       1.85620000      -0.92180000
H       -0.85670000       1.98610000       0.08940000
H       -3.17230000      -0.80820000      -0.68290000
H       -3.02570000      -0.85910000       1.07260000
H       -2.70760000       0.64440000       0.20500000
H       -2.42040000      -3.34460000       0.06480000
H        1.55610000      -2.73420000      -0.24870000
