21
Properties=species:S:1:pos:R:3 gdb_105367=T pbc="F F F"
C       -0.00850000       1.39540000      -0.31690000
C        0.32390000      -0.08980000      -0.15790000
C        0.81330000      -0.50810000       1.22210000
C        1.10500000      -1.99210000       1.39540000
C       -0.13910000      -2.84860000       1.29820000
C       -0.49040000      -3.61470000       0.09470000
O        0.07250000      -4.26020000       1.23670000
C        1.47110000       0.44290000       2.13180000
O        0.10500000       0.06770000       2.33500000
H        0.89010000       2.01960000      -0.29600000
H       -0.50760000       1.57410000      -1.27340000
H       -0.67410000       1.72600000       0.48470000
H       -0.56850000      -0.68560000      -0.38640000
H        1.08180000      -0.39090000      -0.89270000
H        1.83550000      -2.32490000       0.64880000
H        1.55310000      -2.15180000       2.38230000
H       -0.94910000      -2.54860000       1.96410000
H       -1.53210000      -3.85490000      -0.11410000
H        0.15710000      -3.56630000      -0.78070000
H        2.17340000       0.07040000       2.87690000
H        1.62680000       1.47670000       1.83250000
