13
Properties=species:S:1:pos:R:3 gdb_133542=T pbc="F F F"
F        0.36430000       0.12610000       0.18770000
C       -0.03490000       1.39940000       0.04480000
F        1.04570000       2.14040000      -0.21810000
F       -0.83880000       1.45940000      -1.02100000
C       -0.74210000       1.88190000       1.29530000
C       -1.57060000       0.87680000       2.08290000
C       -0.26550000       1.34860000       2.63900000
C       -1.20150000       3.24410000       1.21830000
N       -1.57850000       4.33590000       1.17500000
H       -2.48920000       1.24780000       2.51970000
H       -1.62160000      -0.12400000       1.67250000
H        0.57920000       0.67160000       2.61010000
H       -0.27210000       2.04920000       3.46440000
