13
Properties=species:S:1:pos:R:3 gdb_23914=T pbc="F F F"
O       -0.18370000       1.34550000      -0.23750000
C       -0.05140000      -0.02010000       0.00150000
C       -0.40500000      -0.58390000       1.35480000
C       -1.31740000      -0.79640000       0.16480000
C        1.09550000      -0.63240000      -0.76530000
F        2.24890000      -0.00830000      -0.44860000
F        1.24800000      -1.93570000      -0.48460000
F        0.93640000      -0.51580000      -2.08720000
H        0.60170000       1.78330000       0.11210000
H        0.15640000      -1.43080000       1.72990000
H       -0.71300000       0.14190000       2.09820000
H       -2.22980000      -0.21460000       0.11570000
H       -1.37280000      -1.78750000      -0.26930000
