18
Properties=species:S:1:pos:R:3 gdb_51519=T pbc="F F F"
N        0.83280000       0.73890000      -0.13400000
C        0.33890000      -0.41090000       0.02490000
O       -0.98890000      -0.60040000      -0.10750000
C       -1.51410000      -1.87850000       0.19820000
C       -2.34640000      -2.00780000       1.49490000
C       -3.37650000      -2.87540000       0.68970000
C       -2.75310000      -2.28130000      -0.62250000
C       -3.19370000      -4.30690000       0.83990000
C       -3.02590000      -5.49180000       0.96140000
H        1.84350000       0.70020000      -0.02050000
H        0.88920000      -1.33290000       0.26160000
H       -0.72460000      -2.63670000       0.14470000
H       -1.87750000      -2.46200000       2.36860000
H       -2.77940000      -1.04150000       1.76360000
H       -4.42380000      -2.61320000       0.85690000
H       -3.29930000      -1.39060000      -0.94110000
H       -2.61520000      -2.95510000      -1.46850000
H       -2.89120000      -6.53930000       1.07080000
