15
Properties=species:S:1:pos:R:3 gdb_52566=T pbc="F F F"
C        0.10320000       1.42630000       0.00860000
C        0.07790000      -0.02560000       0.00110000
C        0.05800000      -1.23000000      -0.00520000
C       -0.04280000      -2.66620000      -0.01200000
O       -1.07660000      -3.28990000      -0.00560000
O        1.18240000      -3.23570000      -0.02670000
C        1.16340000      -4.67910000      -0.03430000
C        2.53260000      -5.16270000      -0.04990000
C        3.65110000      -5.59830000      -0.06290000
H        1.12950000       1.80710000       0.00080000
H       -0.41610000       1.82700000      -0.86850000
H       -0.39930000       1.81760000       0.89970000
H        0.62420000      -5.03740000       0.84930000
H        0.60750000      -5.02780000      -0.91140000
H        4.64210000      -5.97990000      -0.07450000
