17
Properties=species:S:1:pos:R:3 gdb_96937=T pbc="F F F"
C       -0.29750000       1.46530000       0.13520000
N       -0.25950000       0.01610000       0.18170000
C        0.56340000      -0.56220000       0.93440000
N        0.69720000      -1.94310000       1.07500000
C        1.89170000      -2.25920000       1.79540000
C        3.20240000      -1.66240000       1.28470000
O        3.26130000      -1.23590000      -0.03450000
C        2.35650000      -0.91690000       2.29330000
O        1.48060000       0.05570000       1.77160000
H        0.59030000       1.95060000       0.56000000
H       -0.40810000       1.78910000      -0.90560000
H       -1.17570000       1.83790000       0.67800000
H        0.46530000      -2.46820000       0.24500000
H        1.88420000      -3.15660000       2.40290000
H        4.11350000      -2.11520000       1.67610000
H        3.38880000      -0.28070000      -0.04340000
H        2.69100000      -0.69470000       3.29870000
