17
Properties=species:S:1:pos:R:3 gdb_47232=T pbc="F F F"
O       -0.02820000      -0.06320000       0.39520000
C       -0.06360000       1.12040000       0.12860000
N       -1.24020000       1.79310000      -0.11050000
C       -1.38020000       3.24320000       0.02770000
C       -0.82280000       3.78900000       1.33040000
C        0.47310000       3.69530000       1.62770000
C        1.44550000       3.09490000       0.67380000
C        2.15490000       1.80030000       0.93140000
N        1.10980000       1.87770000      -0.07180000
H       -2.04290000       1.23040000       0.12620000
H       -0.88460000       3.73130000      -0.82010000
H       -2.44380000       3.47280000      -0.06160000
H       -1.51400000       4.24930000       2.03080000
H        0.86490000       4.09250000       2.56100000
H        1.98490000       3.82380000       0.06570000
H        3.16550000       1.65620000       0.55950000
H        1.91400000       1.25610000       1.84030000
