20
Properties=species:S:1:pos:R:3 gdb_121430=T pbc="F F F"
C        1.21900000       1.80340000      -0.63670000
C        0.89070000       0.31640000      -0.48830000
C        1.16510000      -0.47640000      -1.77320000
N        0.93520000      -1.89040000      -1.55660000
C        0.11570000      -2.56810000      -2.22820000
C       -0.76490000      -2.21930000      -3.39600000
O       -0.06040000      -3.91700000      -1.93850000
C        0.28490000      -4.39450000      -0.70300000
O        0.25650000      -5.56330000      -0.46980000
H        2.27600000       1.95410000      -0.88260000
H        0.62510000       2.26810000      -1.43170000
H        1.01330000       2.34620000       0.29040000
H        1.47810000      -0.12510000       0.32430000
H       -0.16360000       0.18920000      -0.21290000
H        0.57470000      -0.04980000      -2.59730000
H        2.22240000      -0.35510000      -2.04370000
H       -0.61570000      -1.19640000      -3.73740000
H       -0.55690000      -2.90650000      -4.22130000
H       -1.81500000      -2.35770000      -3.12040000
H        0.55560000      -3.59490000      -0.00250000
