21
Properties=species:S:1:pos:R:3 gdb_76713=T pbc="F F F"
C       -0.45030000       1.09200000      -1.39680000
C       -0.13220000      -0.15580000      -0.59930000
C        1.27920000      -0.65520000      -0.37010000
C        2.50760000       0.04880000      -0.91200000
C        0.46190000      -0.12960000       0.79680000
C        0.82020000       1.14340000       1.51580000
O       -0.32300000       1.63170000       2.24420000
C       -0.82200000       2.83560000       1.92160000
O       -1.77790000       3.30880000       2.45960000
H        0.28090000       1.89190000      -1.25500000
H       -0.47500000       0.86780000      -2.46880000
H       -1.43270000       1.49040000      -1.12150000
H       -0.87010000      -0.94060000      -0.74510000
H        1.38470000      -1.73730000      -0.37920000
H        2.40610000       1.13660000      -0.93300000
H        3.39200000      -0.18670000      -0.30990000
H        2.71350000      -0.27560000      -1.93780000
H        0.08250000      -0.88330000       1.48140000
H        1.60200000       0.96150000       2.26060000
H        1.18190000       1.92320000       0.83750000
H       -0.25070000       3.33590000       1.11410000
