14
Properties=species:S:1:pos:R:3 gdb_128614=T pbc="F F F"
C       -0.00420000       1.37620000       0.09940000
O        0.05820000      -0.04000000       0.02820000
C        0.61030000      -0.58000000      -1.07070000
C        1.11650000       0.09540000      -2.12420000
O        1.66130000      -0.51390000      -3.20560000
N        1.70730000      -1.95050000      -3.24220000
N        1.25230000      -2.58220000      -2.29440000
C        0.65820000      -2.03120000      -1.11080000
N        0.21890000      -2.79130000      -0.18990000
H        0.99910000       1.82040000       0.07120000
H       -0.60640000       1.78940000      -0.72010000
H       -0.47850000       1.60920000       1.05250000
H        1.14440000       1.17200000      -2.22300000
H        0.37060000      -3.76590000      -0.45950000
