19
Properties=species:S:1:pos:R:3 gdb_54190=T pbc="F F F"
C        0.09040000       1.33310000       0.62310000
C        0.05840000       0.07080000      -0.21040000
O        1.03050000      -0.33980000      -0.80670000
C       -1.24840000      -0.71890000      -0.23550000
O       -2.31070000       0.18980000      -0.01860000
C       -1.47360000      -1.70260000      -1.43200000
C       -1.56510000      -2.87440000      -0.44010000
C       -0.28880000      -2.98610000       0.33800000
C       -1.28730000      -1.93030000       0.73320000
H        1.10900000       1.72060000       0.65850000
H       -0.58440000       2.07690000       0.18850000
H       -0.28150000       1.13730000       1.63390000
H       -3.11220000      -0.32390000       0.12920000
H       -2.41750000      -1.46370000      -1.92760000
H       -0.67190000      -1.75710000      -2.17140000
H       -2.27580000      -3.68970000      -0.49570000
H       -0.23040000      -3.82630000       1.02280000
H        0.65600000      -2.69770000      -0.11180000
H       -1.72940000      -1.88060000       1.72250000
