20
Properties=species:S:1:pos:R:3 gdb_60628=T pbc="F F F"
C        0.52340000       1.51800000       0.09960000
N       -0.00600000       0.15430000       0.08130000
C        0.34910000      -0.71530000       1.16990000
C        0.06600000      -0.25080000       2.59050000
C       -0.76460000      -1.34310000       1.98480000
O       -2.09650000      -1.11960000       1.64190000
C       -0.38720000      -0.36290000      -1.15680000
C       -0.68900000      -1.85060000      -1.21250000
O       -0.48380000       0.34660000      -2.14000000
H        1.62080000       1.51630000       0.12100000
H        0.18750000       2.01950000      -0.80600000
H        0.16410000       2.05980000       0.97770000
H        1.25930000      -1.29860000       1.03010000
H        0.79510000      -0.48990000       3.35650000
H       -0.42070000       0.71020000       2.71580000
H       -0.62780000      -2.36180000       2.33080000
H       -2.12260000      -0.33020000       1.08590000
H       -1.47230000      -2.12490000      -0.50210000
H       -1.00860000      -2.08180000      -2.22790000
H        0.19970000      -2.44340000      -0.97200000
