20
Properties=species:S:1:pos:R:3 gdb_9691=T pbc="F F F"
C       -0.00600000       1.09970000       0.30470000
O       -0.23280000      -0.00560000      -0.55030000
C       -1.37850000      -0.71940000      -0.21410000
C       -1.49570000      -2.11370000      -0.76060000
C       -1.30910000      -1.88980000       0.73360000
C        0.00230000      -2.26930000       1.38340000
O       -2.45210000      -2.01380000       1.53590000
C       -2.85040000      -3.34710000       1.78910000
H        0.89450000       1.60370000      -0.05400000
H       -0.84730000       1.80800000       0.27530000
H        0.14610000       0.78650000       1.34680000
H       -2.29210000      -0.12550000      -0.15790000
H       -2.46840000      -2.43190000      -1.11820000
H       -0.64760000      -2.49230000      -1.32110000
H        0.83700000      -1.92700000       0.76770000
H        0.08310000      -1.80290000       2.37090000
H        0.09700000      -3.35290000       1.51040000
H       -3.79720000      -3.29710000       2.33250000
H       -3.00240000      -3.90990000       0.85680000
H       -2.12110000      -3.88990000       2.40640000
