20
Properties=species:S:1:pos:R:3 gdb_58661=T pbc="F F F"
C        0.04600000       1.50620000      -0.27870000
C        0.01240000       0.03580000       0.13980000
O        0.58210000      -0.16350000       1.42450000
C       -1.39860000      -0.56160000       0.06970000
C       -1.92210000      -1.14500000      -1.23760000
C       -1.61110000      -2.06710000      -0.09580000
C       -0.45310000      -3.03970000      -0.12470000
C       -2.34170000       0.11680000       0.92340000
N       -3.06020000       0.67840000       1.63720000
H        1.06880000       1.88490000      -0.20860000
H       -0.30630000       1.63250000      -1.30720000
H       -0.59380000       2.11220000       0.37230000
H        0.64860000      -0.53990000      -0.53840000
H        0.08290000       0.36760000       2.05670000
H       -2.95490000      -0.95540000      -1.50480000
H       -1.22850000      -1.12040000      -2.07270000
H       -2.48040000      -2.43650000       0.44060000
H        0.35670000      -2.70280000      -0.77670000
H       -0.03830000      -3.18700000       0.87650000
H       -0.79280000      -4.00970000      -0.50200000
