18
Properties=species:S:1:pos:R:3 gdb_39789=T pbc="F F F"
C       -0.05590000       1.53170000       0.01110000
C        1.30520000       0.83520000      -0.00620000
C        0.04040000       0.05290000       0.00210000
C       -0.53770000      -1.02330000       0.93340000
N       -1.76390000      -1.01780000       0.01410000
C       -0.55610000      -1.01320000      -0.92930000
C        0.11380000      -2.05360000      -0.01010000
C        1.26160000      -2.94600000      -0.02630000
O       -0.10570000      -3.43960000      -0.01550000
H       -0.36140000       2.02500000       0.92770000
H       -0.37950000       2.03490000      -0.89400000
H        1.88510000       0.87970000      -0.92270000
H        1.90310000       0.86980000       0.89910000
H       -0.62210000      -1.02240000       2.02020000
H       -2.16850000      -1.96010000       0.01290000
H       -0.66200000      -1.00040000      -2.01410000
H        1.80520000      -3.12590000      -0.95230000
H        1.82340000      -3.13590000       0.88680000
