17
Properties=species:S:1:pos:R:3 gdb_67333=T pbc="F F F"
O       -0.07840000       1.30520000      -0.09180000
C        0.02370000      -0.06660000      -0.06080000
C        0.39560000      -0.99300000       1.15720000
C       -1.05590000      -0.98800000       1.67800000
C       -1.20720000      -1.00310000       0.14280000
C        0.04370000      -1.93420000      -0.04100000
C        0.72760000      -1.01070000      -1.08650000
C        0.21650000      -1.01890000      -2.49320000
O        0.91680000      -0.94620000      -3.47350000
H        0.80500000       1.68600000      -0.03050000
H        1.33920000      -0.99080000       1.70520000
H       -1.38790000      -1.88340000       2.21160000
H       -1.38980000      -0.08310000       2.19190000
H       -2.11720000      -1.01360000      -0.45610000
H        0.04220000      -3.02120000      -0.01830000
H        1.82260000      -1.00030000      -1.07830000
H       -0.89110000      -1.08940000      -2.59020000
