17
Properties=species:S:1:pos:R:3 gdb_127546=T pbc="F F F"
C        0.07150000       1.43930000      -0.05270000
N        0.03910000      -0.01190000       0.01860000
N       -0.04110000      -0.64900000      -1.17360000
C       -0.03340000      -1.94030000      -1.18040000
C        0.04820000      -2.81580000      -0.00480000
N        0.06040000      -4.10810000      -0.03340000
C        0.09450000      -2.06290000       1.22390000
C        0.09660000      -0.70170000       1.21170000
N        0.22860000       0.08470000       2.35540000
H        0.90960000       1.83510000       0.52760000
H        0.19190000       1.70160000      -1.10210000
H       -0.86060000       1.88970000       0.31430000
H       -0.09410000      -2.39250000      -2.16820000
H        0.00750000      -4.43490000      -1.00070000
H        0.12410000      -2.59690000       2.16610000
H        0.16490000      -0.46330000       3.20230000
H       -0.39090000       0.88310000       2.40120000
