18
Properties=species:S:1:pos:R:3 gdb_31631=T pbc="F F F"
C       -0.11060000       1.40390000       0.32330000
N       -0.13220000       0.14130000      -0.42180000
C       -1.18570000      -0.71930000      -0.18240000
C       -1.29250000      -2.02530000       0.10410000
N       -2.66440000      -2.34160000       0.06260000
C       -3.26640000      -3.62250000       0.33900000
C       -3.38090000      -1.19770000      -0.18350000
N       -4.64550000      -1.08250000      -0.23560000
O       -2.45010000      -0.18510000      -0.36270000
H        0.71900000       2.01320000      -0.04250000
H       -1.04050000       1.94280000       0.13310000
H       -0.00380000       1.26860000       1.41010000
H        0.75100000      -0.34900000      -0.38170000
H       -0.54060000      -2.76550000       0.31260000
H       -3.09250000      -3.93490000       1.37650000
H       -4.33980000      -3.51970000       0.17560000
H       -2.87100000      -4.39430000      -0.33110000
H       -4.91280000      -0.12870000      -0.45860000
