18
Properties=species:S:1:pos:R:3 gdb_84156=T pbc="F F F"
C        0.04440000       1.53220000       0.08940000
C       -0.08840000       0.04210000      -0.01950000
C       -1.19330000      -0.64830000       0.25140000
C       -1.22210000      -2.13480000       0.01420000
N       -1.48050000      -2.41380000      -1.41710000
C        0.13310000      -2.77360000       0.32320000
O        0.24380000      -3.88620000       0.76400000
O        1.23440000      -2.04300000       0.05370000
C        1.12230000      -0.72140000      -0.49200000
H        0.81000000       1.80950000       0.82460000
H        0.35480000       1.97250000      -0.86690000
H       -0.90020000       1.99620000       0.38330000
H       -2.09800000      -0.16150000       0.60470000
H       -1.94200000      -2.61970000       0.68660000
H       -1.63320000      -3.41220000      -1.53680000
H       -2.33800000      -1.94790000      -1.69940000
H        1.11910000      -0.79540000      -1.58770000
H        2.04570000      -0.21650000      -0.19290000
