21
Properties=species:S:1:pos:R:3 gdb_37344=T pbc="F F F"
C        0.02580000       1.50900000       0.18970000
C        1.32450000       0.76080000       0.02120000
C        0.00230000       0.01150000       0.02000000
C       -0.10430000      -0.61790000      -1.39850000
C        1.38850000      -0.86120000      -1.73040000
C        1.95910000       0.53010000      -1.36920000
C        1.53300000       1.54110000      -2.45920000
C        0.11580000       1.31010000      -2.93420000
C       -0.64930000       0.33280000      -2.44390000
H       -0.18410000       1.88640000       1.18630000
H       -0.34980000       2.13820000      -0.60800000
H        1.98910000       0.70490000       0.87690000
H       -0.30080000      -0.60240000       0.86130000
H       -0.69560000      -1.53600000      -1.37060000
H        1.81030000      -1.62640000      -1.07010000
H        1.55870000      -1.15940000      -2.77030000
H        3.04960000       0.53210000      -1.28860000
H        1.63670000       2.56790000      -2.08230000
H        2.21920000       1.47230000      -3.31570000
H       -0.26800000       1.98440000      -3.69650000
H       -1.67580000       0.21060000      -2.77830000
