22
Properties=species:S:1:pos:R:3 gdb_80930=T pbc="F F F"
C       -0.12130000       1.50830000      -0.11510000
C        0.10670000       0.01400000       0.01780000
N        1.33730000      -0.61300000      -0.69280000
C        2.15000000      -0.10810000       0.51710000
C        0.87070000      -0.65020000       1.20800000
C        0.51130000      -0.70490000       2.67100000
C        1.04920000      -1.80060000       0.20730000
C        0.28450000      -3.01800000      -0.15810000
C        1.77250000      -3.09490000       0.20520000
H       -0.30590000       1.76130000      -1.16450000
H       -1.01120000       1.79520000       0.45580000
H        0.71010000       2.12300000       0.23600000
H       -0.80430000      -0.51880000      -0.27630000
H        3.07750000      -0.66500000       0.67040000
H        2.33770000       0.96620000       0.51350000
H        0.45070000       0.30080000       3.10080000
H       -0.45900000      -1.19190000       2.81860000
H        1.26050000      -1.26670000       3.23990000
H       -0.43290000      -3.42390000       0.54890000
H        0.02030000      -3.16070000      -1.20100000
H        2.47130000      -3.28770000      -0.60250000
H        2.04070000      -3.55180000       1.15300000
