19
Properties=species:S:1:pos:R:3 gdb_53320=T pbc="F F F"
C        0.54020000       1.55900000      -0.64170000
C        0.25980000       0.17880000      -0.27260000
C        0.03140000      -0.96520000       0.02900000
C       -0.26060000      -2.33140000       0.40880000
C       -0.19570000      -2.71680000       1.93020000
C       -1.47190000      -3.52820000       1.70930000
C       -1.74640000      -4.91920000       2.07290000
O       -2.43230000      -3.82330000       2.70030000
C       -1.75610000      -2.81160000       0.38970000
H        1.36230000       1.62000000      -1.36360000
H       -0.33510000       2.03580000      -1.09700000
H        0.82330000       2.15600000       0.23250000
H        0.35480000      -3.02630000      -0.17180000
H        0.69830000      -3.23790000       2.27860000
H       -0.38200000      -1.84760000       2.56610000
H       -2.36040000      -5.54050000       1.42170000
H       -1.05160000      -5.46110000       2.71380000
H       -2.44210000      -1.97270000       0.53230000
H       -2.08160000      -3.40670000      -0.46590000
