20
Properties=species:S:1:pos:R:3 gdb_32732=T pbc="F F F"
C        0.13770000       1.59880000       0.15010000
C        0.07310000       0.07090000       0.10500000
C        0.55370000      -0.50830000      -1.24140000
C        0.52450000      -1.99400000      -1.31260000
C       -0.28580000      -2.89670000      -1.94370000
N       -1.42750000      -2.64680000      -2.72600000
C        0.19930000      -4.20110000      -1.58360000
C        1.25950000      -3.99370000      -0.76270000
O        1.47290000      -2.67060000      -0.57770000
H        1.16060000       1.95790000      -0.01070000
H       -0.49410000       2.04720000      -0.62540000
H       -0.20130000       1.98330000       1.11700000
H        0.68850000      -0.35400000       0.90620000
H       -0.95240000      -0.26920000       0.29210000
H       -0.06910000      -0.10670000      -2.05170000
H        1.57400000      -0.15080000      -1.43860000
H       -1.47080000      -1.69010000      -3.05480000
H       -1.48660000      -3.26640000      -3.52490000
H       -0.20250000      -5.15270000      -1.89630000
H        1.93780000      -4.65740000      -0.25190000
