18
Properties=species:S:1:pos:R:3 gdb_129818=T pbc="F F F"
N        0.21220000       1.39130000      -0.24920000
C        0.00540000       0.01620000      -0.10960000
C       -1.06030000      -0.79980000      -0.43460000
C       -0.61670000      -2.11560000      -0.12950000
N        0.62220000      -2.11560000       0.35110000
N        0.98230000      -0.80120000       0.35320000
C       -1.34420000      -3.39210000      -0.27080000
C       -2.83730000      -3.46960000      -0.02380000
C       -2.30440000      -3.61510000      -1.42120000
H        0.57840000       1.82850000       0.58870000
H       -0.63540000       1.86840000      -0.52530000
H       -2.01860000      -0.48500000      -0.81590000
H        1.92320000      -0.55010000       0.60180000
H       -0.75550000      -4.24670000       0.04350000
H       -3.22260000      -4.34990000       0.47890000
H       -3.34630000      -2.54800000       0.23710000
H       -2.44920000      -2.79240000      -2.11310000
H       -2.32180000      -4.59570000      -1.88390000
