20
Properties=species:S:1:pos:R:3 gdb_121388=T pbc="F F F"
O        0.12760000       1.43120000       0.15760000
C        0.07930000       0.01330000       0.06880000
C       -1.35330000      -0.52270000       0.03680000
C       -1.42480000      -2.05250000      -0.04230000
C       -2.85650000      -2.58060000       0.11840000
C       -2.87930000      -4.06710000      -0.20900000
O       -2.32540000      -4.32210000      -1.51060000
C       -1.31540000      -3.50570000      -1.89140000
N       -0.82570000      -2.49750000      -1.30670000
H       -0.20250000       1.78510000      -0.67410000
H        0.63250000      -0.36040000      -0.80240000
H        0.59320000      -0.35450000       0.96470000
H       -1.88260000      -0.17440000       0.93180000
H       -1.87860000      -0.10410000      -0.83290000
H       -0.80770000      -2.46140000       0.77290000
H       -3.23050000      -2.41810000       1.13460000
H       -3.52430000      -2.04530000      -0.56750000
H       -2.29800000      -4.63730000       0.52720000
H       -3.89310000      -4.47360000      -0.23380000
H       -0.92670000      -3.83290000      -2.85470000
