14
Properties=species:S:1:pos:R:3 gdb_24907=T pbc="F F F"
N       -0.05280000       1.23750000      -0.03730000
C        0.00140000      -0.02370000       0.04130000
C       -1.24770000      -0.94280000      -0.00550000
C       -0.60470000      -2.29450000      -0.07860000
C        0.72790000      -2.14350000       0.00060000
N        1.17060000      -0.84020000       0.17820000
O        1.34410000      -3.33540000       0.05640000
C        0.26640000      -4.21400000      -0.01120000
N       -0.89630000      -3.64960000      -0.07700000
H        0.87150000       1.66890000       0.01360000
H       -1.84680000      -0.78980000       0.89920000
H       -1.87500000      -0.66430000      -0.85730000
H        2.04200000      -0.50770000      -0.21000000
H        0.52070000      -5.26040000      -0.02690000
