21
Properties=species:S:1:pos:R:3 gdb_98301=T pbc="F F F"
C        0.96980000       1.13510000       0.09690000
O        0.85950000      -0.28240000      -0.08320000
C        0.14800000      -0.67170000      -1.16300000
O       -0.38530000       0.10110000      -1.92000000
C        0.15380000      -2.18610000      -1.31170000
C       -1.20350000      -2.68380000      -1.82200000
C        1.28650000      -2.56480000      -2.25990000
C        2.71060000      -2.62320000      -1.77100000
C        1.97810000      -3.89650000      -2.11740000
H        1.46330000       1.59640000      -0.76230000
H       -0.01840000       1.58680000       0.21540000
H        1.56450000       1.27520000       0.99970000
H        0.37200000      -2.61580000      -0.32850000
H       -2.00160000      -2.47250000      -1.10400000
H       -1.45870000      -2.18610000      -2.76090000
H       -1.16900000      -3.76330000      -1.99250000
H        1.13910000      -2.20160000      -3.27360000
H        3.49750000      -2.28320000      -2.43500000
H        2.89030000      -2.40960000      -0.72290000
H        1.67100000      -4.54140000      -1.30010000
H        2.26180000      -4.42850000      -3.01870000
