17
Properties=species:S:1:pos:R:3 gdb_75153=T pbc="F F F"
C       -0.26560000       1.42060000       0.14180000
C       -0.03270000      -0.03830000      -0.03900000
N       -0.17540000      -0.70930000      -1.10560000
C        0.15310000      -2.09650000      -0.79130000
C        0.57980000      -2.07850000       0.72110000
C        2.04220000      -2.45570000       0.95670000
O        0.38140000      -0.69280000       1.09310000
C       -0.31110000      -2.90190000       1.55420000
N       -1.00270000      -3.57760000       2.18650000
H        0.64830000       1.90990000       0.49220000
H       -0.58010000       1.86040000      -0.80370000
H       -1.03620000       1.58690000       0.90090000
H       -0.71010000      -2.74410000      -0.96850000
H        0.97340000      -2.45370000      -1.42280000
H        2.67910000      -1.82670000       0.32890000
H        2.31710000      -2.30890000       2.00340000
H        2.20960000      -3.50360000       0.69250000
