27
Properties=species:S:1:pos:R:3 gdb_118470=T pbc="F F F"
C       -0.25670000       1.83350000      -1.23630000
C       -0.21550000       0.36770000      -0.79530000
C        0.79780000      -0.46320000      -1.59010000
C        0.86000000      -1.93830000      -1.17280000
O       -0.44690000      -2.50590000      -1.32030000
C       -1.04120000      -2.97260000      -0.13080000
C        1.85520000      -2.77220000      -2.00900000
C        3.29200000      -2.23640000      -1.91860000
C        1.81250000      -4.25260000      -1.60630000
H        0.71900000       2.31600000      -1.10840000
H       -0.53040000       1.92020000      -2.29380000
H       -0.98840000       2.40480000      -0.65610000
H        0.02950000       0.31640000       0.27460000
H       -1.20820000      -0.07990000      -0.90980000
H        0.54730000      -0.41760000      -2.65880000
H        1.79220000      -0.01560000      -1.48110000
H        1.16200000      -1.99690000      -0.11380000
H       -0.45430000      -3.77520000       0.34010000
H       -1.18110000      -2.16910000       0.60740000
H       -2.02370000      -3.37260000      -0.39800000
H        1.52160000      -2.69840000      -3.05360000
H        3.39500000      -1.23510000      -2.34420000
H        3.63280000      -2.19600000      -0.87650000
H        3.97820000      -2.89500000      -2.46080000
H        0.80030000      -4.65370000      -1.68950000
H        2.46820000      -4.84740000      -2.25050000
H        2.15510000      -4.39080000      -0.57310000
