18
Properties=species:S:1:pos:R:3 gdb_38068=T pbc="F F F"
C       -0.02080000       1.37650000      -0.32960000
C        1.43580000       1.54550000       0.13810000
C        1.26660000       0.12930000       0.74530000
O       -0.08230000       0.03540000       0.20280000
C        2.18830000      -0.97600000       0.29420000
C        2.67680000      -1.67920000       1.31940000
C        2.18210000      -1.13280000       2.61680000
N        2.62470000       0.27940000       2.84470000
C        1.29430000       0.00140000       2.26700000
H       -0.75390000       2.03940000       0.14710000
H       -0.18540000       1.39210000      -1.41330000
H        2.17390000       1.60710000      -0.66300000
H        1.63180000       2.33340000       0.86590000
H        2.42590000      -1.12270000      -0.75330000
H        3.37390000      -2.50570000       1.24790000
H        2.02040000      -1.77080000       3.47850000
H        2.50340000       0.50220000       3.83270000
H        0.39430000       0.24380000       2.82160000
