20
Properties=species:S:1:pos:R:3 gdb_37805=T pbc="F F F"
C       -0.01290000       1.50750000      -0.03040000
C        1.44450000       1.93300000      -0.04990000
C        2.36480000       1.30880000       0.93760000
C        1.92070000       0.58480000       2.21430000
O        1.28670000      -0.66520000       2.05610000
C        0.01140000      -0.61840000       1.44690000
C        0.04000000      -0.03860000       0.02120000
C        1.38920000      -0.35330000      -0.67040000
N        2.29870000       0.78820000      -0.44170000
H       -0.57660000       1.93510000       0.80630000
H       -0.50120000       1.84370000      -0.95160000
H        1.69240000       2.89770000      -0.48520000
H        3.30180000       1.83870000       1.10560000
H        2.81330000       0.37120000       2.80980000
H        1.28820000       1.26730000       2.80920000
H       -0.32190000      -1.66070000       1.41950000
H       -0.69790000      -0.05630000       2.07730000
H       -0.80410000      -0.46570000      -0.52910000
H        1.84200000      -1.27970000      -0.31180000
H        1.25750000      -0.43230000      -1.75500000
