16
Properties=species:S:1:pos:R:3 gdb_85036=T pbc="F F F"
C       -0.04510000       1.41470000      -0.01790000
N       -0.00680000      -0.03100000      -0.02250000
C       -1.21420000      -0.83500000       0.05770000
C       -0.68940000      -2.23890000      -0.22930000
O       -1.30350000      -3.17100000      -0.67900000
C        0.80550000      -2.22870000       0.02550000
O        1.52420000      -3.12570000      -0.75880000
C        1.16380000      -0.74200000      -0.17370000
O        2.25960000      -0.27340000      -0.36610000
H        0.97800000       1.77230000      -0.14080000
H       -0.66150000       1.79370000      -0.84230000
H       -0.45490000       1.79690000       0.92490000
H       -1.69190000      -0.78680000       1.04830000
H       -1.96490000      -0.54630000      -0.68860000
H        0.95170000      -2.42130000       1.10720000
H        0.88610000      -3.78420000      -1.06890000
