16
Properties=species:S:1:pos:R:3 gdb_45376=T pbc="F F F"
O        0.03620000      -0.08540000       0.04190000
C       -0.00550000       1.11620000       0.04440000
N       -1.17530000       1.84290000       0.09010000
C       -1.22040000       3.29600000      -0.02640000
C       -0.80100000       3.75510000      -1.43220000
O        0.63430000       3.61790000      -1.42460000
C        1.04830000       3.27900000      -0.12560000
C       -0.03840000       3.82830000       0.79330000
O        1.14730000       1.85420000       0.03500000
H       -2.00520000       1.29420000      -0.06550000
H       -2.20100000       3.66060000       0.28150000
H       -1.21950000       3.12790000      -2.22410000
H       -1.06800000       4.80320000      -1.62140000
H        2.06270000       3.64570000       0.02540000
H       -0.01420000       4.92030000       0.80840000
H        0.00620000       3.43360000       1.80790000
