17
Properties=species:S:1:pos:R:3 gdb_67725=T pbc="F F F"
C        0.02140000       1.54600000       0.01870000
C        0.07270000       0.03100000       0.00260000
C        0.59060000      -0.65450000      -1.25700000
C        0.18220000      -1.93110000      -1.26620000
C       -0.62700000      -2.18730000      -0.00420000
C        0.23570000      -1.95560000       1.22670000
C        0.64370000      -0.67880000       1.22520000
C       -1.30370000      -0.75920000       0.02440000
O       -2.43000000      -0.38930000       0.05270000
H        1.02950000       1.97320000       0.00590000
H       -0.51980000       1.92770000      -0.85180000
H       -0.48980000       1.90990000       0.91450000
H        1.16020000      -0.13650000      -2.01760000
H        0.34970000      -2.67420000      -2.03380000
H       -1.27820000      -3.05850000       0.00120000
H        0.43580000      -2.71360000       1.97160000
H        1.24550000      -0.17560000       1.97080000
