19
Properties=species:S:1:pos:R:3 gdb_89785=T pbc="F F F"
C       -0.72510000       1.17770000       0.08280000
C        0.19330000      -0.03570000       0.03790000
C        1.55360000       0.07200000      -0.71640000
C        2.18580000      -0.70750000       0.43240000
C        3.07810000      -1.86600000       0.39840000
O        3.52990000      -0.58400000       0.85960000
C        0.96610000      -0.48560000       1.34470000
C        1.18400000       0.61580000       2.35260000
O        0.78080000       0.58100000       3.48730000
H       -0.19630000       2.08110000       0.40280000
H       -1.14380000       1.37610000      -0.90960000
H       -1.56030000       1.01760000       0.77240000
H       -0.36460000      -0.90230000      -0.32840000
H        1.61610000      -0.35450000      -1.72020000
H        1.92460000       1.10220000      -0.74760000
H        2.99820000      -2.63620000       1.16460000
H        3.50010000      -2.19270000      -0.55130000
H        0.56050000      -1.35530000       1.86550000
H        1.75710000       1.49370000       1.97890000
