17
Properties=species:S:1:pos:R:3 gdb_34315=T pbc="F F F"
N        0.05760000      -1.09810000       0.05960000
C        0.02770000       0.05610000       0.02120000
C       -0.03400000       1.51060000       0.01190000
C       -0.85260000       2.12600000       1.17780000
O       -1.08290000       3.46920000       0.73020000
C       -0.48630000       3.57600000      -0.57240000
C        1.03870000       3.56860000      -0.39800000
N        1.30290000       2.13820000      -0.06070000
C       -0.73940000       2.19210000      -1.18450000
H       -1.80710000       1.61190000       1.34830000
H       -0.27880000       2.12520000       2.11210000
H       -0.90700000       4.44470000      -1.07700000
H        1.56840000       3.85310000      -1.31530000
H        1.33370000       4.25330000       0.40250000
H        1.79470000       2.04080000       0.82040000
H       -0.22150000       2.00750000      -2.12580000
H       -1.79760000       1.94180000      -1.26220000
