20
Properties=species:S:1:pos:R:3 gdb_31047=T pbc="F F F"
C        0.06320000       1.43010000      -0.16670000
N       -0.01370000       0.09220000       0.40720000
C       -1.19480000      -0.63300000       0.20340000
C       -1.32260000      -1.97260000      -0.03810000
C       -0.34960000      -3.08070000      -0.21570000
O       -2.65870000      -2.30240000      -0.08640000
C       -3.37490000      -1.16410000       0.10500000
C       -4.85610000      -1.28750000       0.07250000
C       -2.53430000      -0.11110000       0.28810000
H        1.05300000       1.84660000       0.03850000
H       -0.11330000       1.46310000      -1.25400000
H       -0.67140000       2.08410000       0.31260000
H        0.80400000      -0.45700000       0.17840000
H       -0.26890000      -3.72570000       0.66940000
H       -0.62970000      -3.71970000      -1.06070000
H        0.64930000      -2.68210000      -0.42080000
H       -5.21900000      -1.98210000       0.83890000
H       -5.31490000      -0.31240000       0.25110000
H       -5.20940000      -1.65960000      -0.89650000
H       -2.82810000       0.91090000       0.46820000
