23
Properties=species:S:1:pos:R:3 gdb_104012=T pbc="F F F"
C        0.08890000       1.51890000      -0.07910000
C       -0.05990000      -0.00190000       0.04130000
C       -1.50800000      -0.53380000       0.04670000
C       -2.29070000       0.00480000       1.24960000
C       -2.23420000      -0.33160000      -1.33590000
C       -2.34940000      -1.81580000      -1.74090000
C       -2.90070000      -2.50760000      -0.47810000
C       -1.48620000      -2.09190000      -0.01780000
O       -1.02640000      -2.33530000      -1.38710000
H        1.14620000       1.79540000      -0.14000000
H       -0.40220000       1.90490000      -0.97900000
H       -0.33630000       2.04520000       0.78120000
H        0.46830000      -0.48650000      -0.78540000
H        0.43460000      -0.33430000       0.96500000
H       -2.37870000       1.09470000       1.21050000
H       -3.30610000      -0.39800000       1.29850000
H       -1.78590000      -0.24960000       2.18940000
H       -3.20780000       0.15920000      -1.24620000
H       -1.62940000       0.22920000      -2.05190000
H       -2.67010000      -2.06570000      -2.75250000
H       -3.78490000      -2.10320000       0.01840000
H       -2.97700000      -3.58740000      -0.60850000
H       -0.91830000      -2.62870000       0.74400000
