17
Properties=species:S:1:pos:R:3 gdb_41931=T pbc="F F F"
C        0.05260000       1.52140000      -0.17370000
O        1.35980000       1.88850000       0.28120000
C        2.02620000       0.76070000       0.76100000
O        3.28360000       0.62090000       0.12000000
C        3.96660000      -0.52120000       0.61200000
C        3.10960000      -1.76070000       0.71480000
C        1.77450000      -1.72140000       0.59700000
C        1.15320000      -0.42330000       0.42700000
C        0.00360000       0.02110000      -0.08120000
H       -0.70210000       2.01840000       0.45470000
H       -0.09200000       1.87980000      -1.20300000
H        2.20660000       0.86190000       1.84920000
H        4.79590000      -0.69740000      -0.08200000
H        4.42100000      -0.30950000       1.59870000
H        3.63560000      -2.69880000       0.86780000
H        1.17360000      -2.62550000       0.60680000
H       -0.82690000      -0.56780000      -0.45010000
