17
Properties=species:S:1:pos:R:3 gdb_46067=T pbc="F F F"
O        0.79270000       0.52840000       0.68610000
C        0.36000000       1.55010000       0.24760000
C       -0.88160000       1.79120000      -0.59840000
O       -1.01000000       3.19410000      -0.66570000
C        0.23170000       3.77010000      -0.27990000
O        0.94750000       2.76400000       0.43820000
C        1.02180000       4.27360000      -1.46350000
C        2.50760000       4.49490000      -1.35800000
C        1.97090000       3.38690000      -2.22960000
H       -0.74760000       1.33000000      -1.58700000
H       -1.76450000       1.35200000      -0.12510000
H        0.01300000       4.58480000       0.41980000
H        0.45420000       4.99850000      -2.03920000
H        2.92630000       5.37570000      -1.83100000
H        2.99080000       4.20210000      -0.43280000
H        2.12650000       2.37010000      -1.88770000
H        2.00840000       3.50720000      -3.30610000
