16
Properties=species:S:1:pos:R:3 gdb_123457=T pbc="F F F"
C        0.11640000       1.30600000       0.67040000
C       -0.06330000      -0.06470000       0.05570000
C       -1.36370000      -0.54170000      -0.42640000
O       -0.36510000      -0.08800000      -1.34490000
C        1.39930000       1.95450000       0.24770000
C        1.93240000       2.10700000      -1.01320000
N        3.09620000       2.76080000      -0.79540000
N        3.29140000       3.00700000       0.51240000
N        2.26330000       2.51710000       1.14400000
H       -0.74000000       1.93120000       0.39060000
H        0.11750000       1.22730000       1.76250000
H        0.67660000      -0.80840000       0.35480000
H       -1.57460000      -1.60940000      -0.45670000
H       -2.23790000       0.10130000      -0.33200000
H        1.59100000       1.80780000      -1.98910000
H        3.79020000       3.05970000      -1.46190000
