19
Properties=species:S:1:pos:R:3 gdb_72123=T pbc="F F F"
C        0.01980000       1.48400000      -0.08650000
C       -0.05100000      -0.01260000      -0.00150000
O        0.23110000      -0.72290000      -1.23050000
C       -0.37760000      -1.85980000      -0.54800000
C        0.72390000      -2.18930000       0.46350000
C        0.73310000      -0.77320000       1.15330000
C       -0.29910000      -0.84830000       2.25530000
C       -1.51010000      -0.97110000       1.69320000
C       -1.34330000      -0.84760000       0.21100000
H        1.04490000       1.80580000      -0.29900000
H       -0.62910000       1.85770000      -0.88350000
H       -0.29100000       1.93110000       0.86210000
H       -0.75350000      -2.63400000      -1.21530000
H        0.49770000      -2.99810000       1.16110000
H        1.65180000      -2.40460000      -0.07070000
H        1.71650000      -0.38660000       1.41920000
H       -0.06210000      -0.91770000       3.31040000
H       -2.45140000      -1.13370000       2.20280000
H       -2.19980000      -0.55900000      -0.39720000
