17
Properties=species:S:1:pos:R:3 gdb_80102=T pbc="F F F"
C       -0.10650000       1.53360000       0.01210000
C        0.07510000       0.03470000       0.01260000
C        1.39560000      -0.65710000      -0.24790000
N        2.61990000       0.06230000      -0.07600000
C        2.68940000       0.41640000       1.15680000
N        1.62640000       0.06930000       1.96680000
C        0.70940000      -0.71940000       1.16870000
C        0.10230000      -1.85680000       1.77600000
C       -0.41210000      -2.81490000       2.29270000
H        0.79010000       2.05580000       0.34980000
H       -0.33260000       1.88290000      -1.00050000
H       -0.93590000       1.82490000       0.66490000
H       -0.75940000      -0.51920000      -0.40900000
H        1.41960000      -1.49870000      -0.93150000
H        3.50950000       0.99300000       1.57240000
H        1.76400000      -0.17030000       2.93680000
H       -0.86470000      -3.66380000       2.74180000
