20
Properties=species:S:1:pos:R:3 gdb_117206=T pbc="F F F"
C        0.09920000       1.49400000      -0.08900000
C        0.09800000      -0.01950000       0.00420000
O        0.72530000      -0.53020000      -1.18890000
C        0.80250000      -1.87010000      -1.28010000
O        0.39720000      -2.62530000      -0.42700000
C        1.49460000      -2.30500000      -2.53460000
N        1.68360000      -1.28060000      -3.53360000
C        2.50410000      -3.43810000      -2.31300000
C        1.18940000      -3.70940000      -2.98790000
H        1.12000000       1.88160000      -0.15280000
H       -0.45240000       1.83060000      -0.97110000
H       -0.37560000       1.92070000       0.79960000
H        0.65140000      -0.37960000       0.87730000
H       -0.91580000      -0.42620000       0.07030000
H        2.23400000      -0.51820000      -3.15050000
H        2.20060000      -1.65820000      -4.32110000
H        3.40050000      -3.40140000      -2.92320000
H        2.63970000      -3.80660000      -1.30290000
H        0.43770000      -4.25130000      -2.42730000
H        1.18040000      -3.87610000      -4.06000000
