16
Properties=species:S:1:pos:R:3 gdb_35405=T pbc="F F F"
N       -0.16950000      -1.20260000      -0.26960000
C       -0.08900000      -0.06000000      -0.11220000
C       -0.00170000       1.38110000       0.05390000
C       -0.21930000       1.99130000       1.48710000
C        1.14170000       2.73800000       1.37240000
C        2.37680000       1.98670000       1.92900000
O        2.13460000       0.58710000       1.76660000
C        2.60600000       1.31680000       0.63210000
C        1.41050000       2.05830000      -0.00950000
H       -0.67220000       1.84740000      -0.67310000
H       -1.09110000       2.64490000       1.54060000
H       -0.26540000       1.25070000       2.28430000
H        1.15340000       3.82150000       1.47810000
H        3.06020000       2.27990000       2.71780000
H        3.50650000       0.94960000       0.15400000
H        1.64970000       2.63580000      -0.90140000
