18
Properties=species:S:1:pos:R:3 gdb_126968=T pbc="F F F"
C       -0.05550000       1.55280000       0.08720000
C       -0.04750000       0.05680000      -0.21050000
N       -1.32320000      -0.54240000       0.16350000
C       -1.51760000      -1.89950000       0.01550000
N       -2.72630000      -2.36560000      -0.23730000
O       -2.56800000      -3.77930000      -0.24140000
C       -1.28500000      -4.07040000      -0.01790000
N       -0.95500000      -5.40530000      -0.06240000
C       -0.54610000      -2.93500000       0.15610000
H        0.90860000       2.00010000      -0.16970000
H       -0.82610000       2.06670000      -0.49880000
H       -0.25590000       1.73670000       1.14660000
H        0.19510000      -0.11320000      -1.27230000
H        0.74200000      -0.42710000       0.37520000
H       -2.12990000      -0.01480000      -0.14560000
H       -1.73880000      -6.02110000       0.10410000
H       -0.14350000      -5.65650000       0.48170000
H        0.50820000      -2.85420000       0.35370000
