15
Properties=species:S:1:pos:R:3 gdb_76213=T pbc="F F F"
C        0.12430000       1.46260000       0.06580000
C        0.00520000      -0.01800000      -0.01430000
C       -0.08760000      -0.78340000      -1.12300000
C       -0.07910000      -2.21860000      -0.80720000
O       -0.20380000      -3.17610000      -1.53070000
C        0.17760000      -2.26360000       0.72090000
O        0.60390000      -3.17810000       1.37300000
C       -0.05270000      -0.84770000       1.25500000
O        0.90350000      -0.46290000       2.21260000
H        1.01310000       1.72640000       0.64960000
H        0.18830000       1.92330000      -0.92210000
H       -0.73310000       1.88790000       0.60280000
H       -0.12740000      -0.41170000      -2.13990000
H       -1.07330000      -0.79020000       1.67720000
H        1.19030000      -1.27620000       2.65080000
