22
Properties=species:S:1:pos:R:3 gdb_96376=T pbc="F F F"
O        0.06670000       1.44770000      -0.13340000
C       -0.00210000       0.02750000      -0.02240000
C        0.75120000      -0.49280000       1.21360000
C        0.00820000      -0.16960000       2.52030000
C       -1.43240000      -0.70190000       2.49000000
C       -2.19730000      -0.16820000       1.26870000
C       -1.44370000      -0.47260000      -0.01460000
C       -2.15330000      -0.59790000      -1.30570000
N       -1.71470000      -1.81020000      -0.58080000
H       -0.28550000       1.83210000       0.67550000
H        0.49090000      -0.33770000      -0.93200000
H        0.85800000      -1.58160000       1.12310000
H        1.75980000      -0.06670000       1.21920000
H        0.55550000      -0.58930000       3.37100000
H       -0.00430000       0.91830000       2.68480000
H       -1.41280000      -1.79780000       2.43770000
H       -1.95790000      -0.43670000       3.41370000
H       -3.19610000      -0.61040000       1.21320000
H       -2.33640000       0.91890000       1.36030000
H       -3.23050000      -0.46040000      -1.34970000
H       -1.62330000      -0.30830000      -2.20960000
H       -0.87450000      -2.18110000      -1.02110000
