15
Properties=species:S:1:pos:R:3 gdb_8261=T pbc="F F F"
O        0.14040000      -0.32350000       0.46520000
C       -0.04520000       0.85090000       0.23300000
N        0.92150000       1.74450000      -0.12380000
C        2.30990000       1.38760000      -0.26960000
C        3.01930000       1.74800000      -1.61410000
C        4.18060000       2.31770000      -0.78150000
O        5.30100000       2.64580000      -1.03690000
C        3.36610000       2.22520000       0.52020000
H       -1.04240000       1.32990000       0.28800000
H        0.64320000       2.69930000      -0.29190000
H        2.37530000       0.32410000      -0.04240000
H        3.25560000       0.93570000      -2.30500000
H        2.50190000       2.53860000      -2.17060000
H        2.98880000       3.20840000       0.82550000
H        3.85420000       1.75940000       1.37920000
