19
Properties=species:S:1:pos:R:3 gdb_42050=T pbc="F F F"
C        0.14860000       1.54100000       0.24680000
O        1.43490000       1.48680000      -0.40740000
C        1.35180000       0.05120000      -0.57150000
C        2.45410000      -0.71230000       0.15080000
C        2.13510000      -2.20700000       0.28760000
O        1.25020000      -2.49740000       1.36150000
C       -0.06340000      -2.04940000       1.20960000
O       -0.20350000      -0.64970000       1.29950000
C       -0.05920000       0.03010000       0.07540000
H        0.22300000       1.85160000       1.29510000
H       -0.55620000       2.19110000      -0.28330000
H        1.34510000      -0.21480000      -1.63810000
H        3.39290000      -0.58590000      -0.40110000
H        2.59970000      -0.29340000       1.15070000
H        1.72670000      -2.60460000      -0.65790000
H        3.04700000      -2.76660000       0.51180000
H       -0.48930000      -2.40570000       0.25330000
H       -0.61910000      -2.47270000       2.04920000
H       -0.86250000      -0.25610000      -0.61590000
