15
Properties=species:S:1:pos:R:3 gdb_27374=T pbc="F F F"
C       -0.02750000       1.49310000       0.05680000
C       -0.00360000      -0.00480000      -0.03870000
N       -0.05260000      -0.61090000      -1.16370000
C       -0.00160000      -2.03920000      -1.18210000
O       -0.00240000      -2.62580000      -2.23570000
N        0.03540000      -2.73570000       0.04070000
C        0.08690000      -2.06240000       1.13570000
N        0.21150000      -2.69100000       2.35090000
N        0.07030000      -0.68410000       1.16720000
H        0.87800000       1.86760000       0.54810000
H       -0.08690000       1.90820000      -0.94800000
H       -0.88900000       1.83400000       0.64200000
H        0.06990000      -3.68880000       2.28110000
H       -0.23700000      -2.26440000       3.14820000
H        0.21680000      -0.18180000       2.02850000
