20
Properties=species:S:1:pos:R:3 gdb_39975=T pbc="F F F"
C        0.00450000       1.52520000       0.00580000
C        1.31020000       0.75820000      -0.02290000
C       -0.00390000       0.02340000      -0.00950000
C       -0.44620000      -0.82280000       1.19310000
N       -0.64550000      -2.19620000       0.67730000
C       -1.68420000      -2.36540000      -0.35450000
C       -2.00530000      -1.06200000      -1.09900000
C       -0.46510000      -0.79710000      -1.19670000
C       -0.23850000      -2.26410000      -0.72040000
H       -0.26770000       2.03130000       0.92680000
H       -0.29670000       2.05250000      -0.89370000
H        1.88800000       0.76880000      -0.94170000
H        1.91180000       0.74460000       0.88070000
H        0.31290000      -0.85240000       1.98140000
H       -1.37690000      -0.45810000       1.64150000
H       -2.32740000      -3.23400000      -0.26600000
H       -2.44180000      -1.27580000      -2.07810000
H       -2.61480000      -0.30570000      -0.59280000
H       -0.08160000      -0.47910000      -2.16590000
H        0.48540000      -2.99540000      -1.05910000
