16
Properties=species:S:1:pos:R:3 gdb_33023=T pbc="F F F"
C        0.40150000       1.42500000      -0.04190000
O        0.61430000       0.03360000      -0.10490000
C        0.17640000      -0.62670000       1.04320000
C        0.41620000      -2.11340000       0.94910000
N        0.02000000      -2.81950000       2.01780000
C        0.23400000      -4.12720000       1.92800000
N        0.79140000      -4.76330000       0.89420000
C        1.14140000      -3.95330000      -0.10380000
N        0.98320000      -2.62960000      -0.14010000
H        0.94350000       1.88370000       0.80020000
H        0.77290000       1.85040000      -0.97650000
H       -0.66710000       1.67070000       0.06320000
H        0.68860000      -0.26080000       1.95090000
H       -0.90240000      -0.47140000       1.22310000
H       -0.07320000      -4.73760000       2.77490000
H        1.60150000      -4.41470000      -0.97530000
