23
Properties=species:S:1:pos:R:3 gdb_73264=T pbc="F F F"
C        0.01820000       1.54090000      -0.03460000
C       -0.01940000       0.01230000      -0.00230000
C       -1.35910000      -0.52580000       0.58600000
C       -0.67890000      -0.59840000       1.97890000
C        0.70320000      -0.57930000       1.26390000
C        1.27840000      -1.99310000       1.03960000
C        1.79080000      -2.18640000      -0.38590000
O        0.76040000      -1.91870000      -1.32230000
C        0.43980000      -0.54000000      -1.35160000
H        1.03580000       1.90860000      -0.20960000
H       -0.62070000       1.93050000      -0.83650000
H       -0.33500000       1.97420000       0.90620000
H       -2.24120000       0.11190000       0.47950000
H       -1.59260000      -1.51940000       0.19380000
H       -0.85660000       0.30220000       2.57190000
H       -0.89440000      -1.46920000       2.60360000
H        1.46530000       0.07590000       1.69780000
H        2.07560000      -2.20040000       1.76270000
H        0.49810000      -2.74430000       1.20830000
H        2.66040000      -1.53570000      -0.58510000
H        2.10210000      -3.22190000      -0.55430000
H       -0.35140000      -0.42310000      -2.10130000
H        1.31840000       0.03130000      -1.70230000
