15
Properties=species:S:1:pos:R:3 gdb_27255=T pbc="F F F"
C        0.09740000       1.50880000       0.03240000
C       -0.07170000       0.03540000       0.04130000
C       -1.11610000      -0.82010000      -0.04520000
O       -2.48110000      -0.83450000      -0.14730000
C       -2.79280000      -2.21600000      -0.39210000
O       -1.66310000      -3.02680000      -0.01770000
C       -0.62690000      -2.14010000       0.03500000
C        0.71480000      -2.07620000       0.17000000
O        1.06540000      -0.74040000       0.17600000
H        0.75370000       1.83380000      -0.78300000
H       -0.87560000       1.98770000      -0.10030000
H        0.53240000       1.87260000       0.97040000
H       -3.65450000      -2.50240000       0.21510000
H       -2.99540000      -2.35740000      -1.46340000
H        1.51800000      -2.78270000       0.27170000
