20
Properties=species:S:1:pos:R:3 gdb_72414=T pbc="F F F"
C       -0.11310000       1.46340000       0.01550000
C        0.05260000      -0.03710000       0.00990000
C        0.77180000      -0.66930000      -1.20400000
C        1.02860000      -2.12990000      -0.72190000
C        0.38100000      -2.13820000       0.69450000
C        0.74170000      -0.72720000       1.20110000
C       -1.10290000      -1.95320000       0.47230000
N       -2.01790000      -2.81060000       0.61310000
O       -1.27610000      -0.65670000       0.05200000
H        0.86610000       1.95150000       0.02740000
H       -0.65250000       1.79890000      -0.87530000
H       -0.67410000       1.78660000       0.89670000
H        0.13520000      -0.61650000      -2.09020000
H        1.70200000      -0.13790000      -1.42490000
H        0.58460000      -2.88260000      -1.37630000
H        2.09810000      -2.34420000      -0.64330000
H        0.62310000      -2.99800000       1.31420000
H        1.81760000      -0.53760000       1.24230000
H        0.28210000      -0.46780000       2.15830000
H       -2.92420000      -2.40830000       0.36460000
