18
Properties=species:S:1:pos:R:3 gdb_81893=T pbc="F F F"
C       -0.12940000       1.59290000      -0.03830000
C       -0.00330000       0.07840000       0.02490000
C        0.67450000      -0.64540000      -1.14440000
N        2.06910000      -0.22780000      -1.18520000
C        1.69280000      -1.28770000      -0.21700000
C        2.23290000      -2.64340000      -0.37340000
O        2.77210000      -3.03100000      -1.38790000
C        1.09710000      -0.54780000       0.98590000
O        1.95940000       0.31560000       1.66870000
H        0.81250000       2.05370000      -0.34600000
H       -0.90060000       1.88990000      -0.75660000
H       -0.40250000       1.99700000       0.94100000
H       -0.97150000      -0.38300000       0.24160000
H        0.21130000      -1.11800000      -2.00280000
H        2.53050000      -0.71270000      -1.95700000
H        2.09450000      -3.31210000       0.50230000
H        0.65610000      -1.21880000       1.72740000
H        2.48400000       0.76340000       0.99210000
