16
Properties=species:S:1:pos:R:3 gdb_44377=T pbc="F F F"
O        0.03300000       0.17390000      -0.92860000
C        0.01870000       1.12140000      -0.19270000
C       -1.28870000       1.73670000       0.31380000
N       -1.25360000       3.11420000       0.81550000
C       -0.69370000       3.43060000       2.11840000
C        0.42560000       2.45980000       2.51380000
C        1.10720000       2.76870000       1.14230000
O        1.18080000       1.69360000       0.20140000
C        0.01850000       3.80480000       0.84300000
H       -1.97910000       1.69200000      -0.53260000
H       -1.69750000       1.06870000       1.08030000
H       -1.27800000       4.05380000       2.78470000
H        1.02740000       2.82280000       3.34990000
H        0.14930000       1.41850000       2.70430000
H        2.12370000       3.15010000       1.22780000
H        0.13290000       4.75010000       0.32560000
