19
Properties=species:S:1:pos:R:3 gdb_103499=T pbc="F F F"
C        0.18040000       1.01530000      -0.47340000
O       -0.06380000      -0.20460000       0.21460000
C       -1.37770000      -0.65800000       0.12570000
C       -2.39630000       0.06400000       0.98110000
C       -1.85550000      -1.25200000      -1.20000000
O       -0.88440000      -1.53030000      -2.17440000
C        0.07350000      -2.41800000      -1.60870000
O       -0.46360000      -2.94600000      -0.40890000
C       -1.55940000      -2.15900000      -0.03950000
H        1.24850000       1.22060000      -0.37240000
H       -0.07480000       0.92840000      -1.53610000
H       -0.37810000       1.85320000      -0.03490000
H       -2.52100000       1.10600000       0.66820000
H       -3.37640000      -0.41770000       0.90990000
H       -2.08480000       0.05170000       2.03050000
H       -2.83300000      -1.04610000      -1.62160000
H        0.26380000      -3.23910000      -2.31180000
H        0.99880000      -1.87170000      -1.39100000
H       -2.29110000      -2.70480000       0.54480000
