14
Properties=species:S:1:pos:R:3 gdb_131443=T pbc="F F F"
O        0.10760000       1.36410000       0.06780000
C        0.08090000       0.02420000       0.06800000
N        0.11450000      -0.66370000      -1.05730000
O        0.07120000      -2.02610000      -0.67390000
C        0.01500000      -2.04900000       0.65430000
C        0.01640000      -0.82040000       1.20580000
C       -0.04860000      -0.95270000       2.69130000
O       -0.08600000      -2.38460000       2.90290000
C       -0.04950000      -3.12970000       1.67940000
H        0.15210000       1.65700000      -0.85300000
H        0.82640000      -0.53930000       3.20980000
H       -0.94690000      -0.50410000       3.13530000
H       -0.94820000      -3.75620000       1.59070000
H        0.82780000      -3.79160000       1.66520000
