11
Properties=species:S:1:pos:R:3 gdb_25351=T pbc="F F F"
O       -1.00110000       1.42830000       0.01800000
C        0.09770000       1.04290000      -0.26880000
C        1.34310000       1.89330000      -0.12220000
N        2.45170000       1.31850000      -0.47980000
C        3.62790000       2.03320000      -0.37400000
O        4.72420000       1.67330000      -0.65070000
O        3.48970000       3.37500000       0.13520000
C        2.28590000       3.82270000       0.45960000
N        1.18230000       3.16870000       0.36670000
H        0.31730000       0.03400000      -0.66770000
H        2.30970000       4.84460000       0.83130000
