20
Properties=species:S:1:pos:R:3 gdb_101463=T pbc="F F F"
C       -0.04210000       1.38720000      -0.04730000
O       -0.06790000      -0.00130000       0.19240000
C       -1.34150000      -0.61540000       0.03050000
C       -1.76850000      -0.72560000      -1.43140000
C       -1.20400000      -1.99010000       0.69720000
C       -0.78690000      -1.90680000       2.18850000
O       -1.84070000      -2.62010000       2.88980000
C       -2.71940000      -2.98550000       1.93210000
N       -2.49250000      -2.71040000       0.71580000
H        0.95270000       1.74260000       0.23320000
H       -0.21530000       1.63690000      -1.10340000
H       -0.79200000       1.91800000       0.56010000
H       -2.09720000      -0.03710000       0.59130000
H       -1.93080000       0.25840000      -1.87970000
H       -0.99810000      -1.24590000      -2.01010000
H       -2.69910000      -1.29350000      -1.49900000
H       -0.47940000      -2.56970000       0.11310000
H        0.16150000      -2.39900000       2.41100000
H       -0.75340000      -0.88140000       2.56450000
H       -3.59090000      -3.51450000       2.30280000
