12
Properties=species:S:1:pos:R:3 gdb_129540=T pbc="F F F"
N       -0.25940000       1.30300000       0.07490000
C       -0.07370000       0.01180000      -0.28270000
O        0.54490000      -0.41230000      -1.21670000
O       -0.74140000      -0.79620000       0.64210000
C       -0.82580000      -2.10650000       0.34270000
N       -0.26570000      -3.00130000       1.11160000
O       -0.66930000      -4.20100000       0.51760000
C       -1.41680000      -3.86640000      -0.53680000
N       -1.56350000      -2.59220000      -0.70550000
H        0.27900000       2.00050000      -0.40730000
H       -0.69640000       1.53130000       0.95030000
H       -1.82220000      -4.67260000      -1.13040000
