18
Properties=species:S:1:pos:R:3 gdb_52291=T pbc="F F F"
O       -0.14090000       0.89480000       1.21710000
C       -0.00700000       1.53660000       0.19560000
N        1.10580000       1.55130000      -0.58380000
C        2.31870000       0.83000000      -0.23990000
C        3.50380000       1.78990000      -0.13640000
C        4.97030000       1.25080000      -0.14050000
C        5.35980000       2.28560000      -1.24390000
C        3.86050000       2.55000000      -1.42360000
O        3.18690000       3.01850000      -2.30100000
H       -0.80260000       2.18780000      -0.21670000
H        1.14490000       2.16190000      -1.38730000
H        2.12940000       0.31960000       0.70690000
H        2.53200000       0.06470000      -0.99830000
H        3.33690000       2.49930000       0.68280000
H        5.50940000       1.32490000       0.80370000
H        5.02820000       0.22110000      -0.50180000
H        5.87880000       3.16430000      -0.84720000
H        5.89790000       1.93390000      -2.12720000
