17
Properties=species:S:1:pos:R:3 gdb_74126=T pbc="F F F"
N        0.13850000       1.32100000      -0.57090000
C       -0.05710000       0.01310000      -0.16210000
C       -1.22280000      -0.64080000      -0.33890000
C       -1.55200000      -2.03690000      -0.01080000
O       -2.73510000      -2.36910000       0.03950000
C       -0.51580000      -3.07190000       0.14870000
C        0.82160000      -2.98600000      -0.01550000
N        1.57800000      -1.84850000      -0.13120000
C        1.14990000      -0.61700000       0.50690000
H        0.78090000       1.87760000      -0.02670000
H       -0.69410000       1.82940000      -0.83220000
H       -2.07640000      -0.09140000      -0.72860000
H       -0.93530000      -4.06380000       0.27360000
H        1.40290000      -3.90290000      -0.07800000
H        2.57380000      -1.99180000      -0.14530000
H        1.99050000       0.08090000       0.46880000
H        0.90810000      -0.80020000       1.56650000
