11
Properties=species:S:1:pos:R:3 gdb_23633=T pbc="F F F"
F        0.05810000       0.06300000       0.00260000
C       -0.03640000       1.37860000       0.01080000
C       -1.23470000       1.99200000       0.03060000
C       -1.27690000       3.43450000       0.03870000
N       -2.31800000       4.14870000       0.05690000
O        0.00820000       4.04610000       0.02420000
C        1.11290000       3.29530000       0.00490000
N        1.17750000       2.01770000      -0.00260000
H       -2.16870000       1.44960000       0.04070000
H       -2.09150000       5.14230000       0.05900000
H        2.01150000       3.90470000      -0.00430000
