19
Properties=species:S:1:pos:R:3 gdb_35738=T pbc="F F F"
N        0.08150000      -1.15640000       0.07540000
C        0.05920000      -0.00180000       0.03600000
C        0.02310000       1.45890000       0.01780000
C       -0.73740000       2.07860000       1.24470000
C        0.15130000       3.26140000       1.64630000
C       -0.37270000       4.45330000       2.39450000
C        0.54920000       3.47510000       3.08600000
C        1.18880000       3.39310000       0.53000000
N        1.38150000       2.03850000      -0.00970000
H       -0.48550000       1.76570000      -0.90470000
H       -1.74450000       2.38720000       0.95030000
H       -0.83700000       1.34990000       2.05270000
H        0.02100000       5.43170000       2.13610000
H       -1.41870000       4.46090000       2.68320000
H        0.12200000       2.81940000       3.83810000
H        1.56540000       3.79330000       3.29850000
H        0.80810000       4.03470000      -0.27670000
H        2.14200000       3.81060000       0.86360000
H        1.96490000       1.51140000       0.63560000
