15
Properties=species:S:1:pos:R:3 gdb_51610=T pbc="F F F"
O        0.41020000       0.13250000      -0.28490000
C        0.49370000       1.26580000       0.06890000
O        1.05750000       2.22660000      -0.71060000
C        1.02620000       3.54430000      -0.22390000
C        1.87330000       3.93260000       0.96440000
C        2.28660000       4.34910000      -0.41710000
O        3.43120000       3.70810000      -0.91420000
C        3.40610000       3.33760000      -2.22440000
O        4.34780000       2.83530000      -2.75130000
H        0.13860000       1.66160000       1.03760000
H        0.07540000       4.04590000      -0.38100000
H        1.49610000       4.67860000       1.65360000
H        2.48150000       3.15110000       1.40560000
H        2.19220000       5.38990000      -0.71270000
H        2.44170000       3.55930000      -2.71380000
