19
Properties=species:S:1:pos:R:3 gdb_1346=T pbc="F F F"
C        0.21880000       1.41500000       0.00960000
C       -0.11150000      -0.09270000       0.00400000
C       -1.63680000      -0.28300000       0.00510000
C        0.56790000      -0.82130000      -1.19840000
C        1.86130000      -1.47200000      -0.64470000
C        1.61130000      -1.50350000       0.84470000
C        0.55420000      -0.77250000       1.18850000
H        1.29910000       1.58310000      -0.04450000
H       -0.24860000       1.92000000      -0.84380000
H       -0.14750000       1.89650000       0.92320000
H       -2.08570000       0.14640000      -0.89800000
H       -1.90160000      -1.34460000       0.04260000
H       -2.09780000       0.20960000       0.86890000
H       -0.10140000      -1.60550000      -1.56710000
H        0.75870000      -0.14350000      -2.03550000
H        2.04140000      -2.46670000      -1.06850000
H        2.75730000      -0.87870000      -0.87570000
H        2.25480000      -2.03840000       1.53530000
H        0.20080000      -0.61700000       2.20360000
