22
Properties=species:S:1:pos:R:3 gdb_103809=T pbc="F F F"
C        0.59480000       1.71120000       0.27010000
C       -0.12350000       0.38830000      -0.02630000
C        0.44220000      -0.32900000      -1.24280000
C        0.23710000       0.36600000      -2.57670000
N        1.70550000      -1.02180000      -1.00430000
C        0.51080000      -1.84300000      -1.28270000
C       -0.01560000      -2.73060000      -0.19040000
C       -0.90780000      -3.86620000      -0.66410000
O        0.22820000      -2.55470000       0.98190000
H        1.66740000       1.53940000       0.40240000
H        0.46300000       2.44760000      -0.52950000
H        0.20940000       2.15720000       1.19180000
H       -0.02850000      -0.27160000       0.83740000
H       -1.19450000       0.56920000      -0.18680000
H        0.73930000       1.33910000      -2.59060000
H        0.63730000      -0.22980000      -3.40340000
H       -0.82650000       0.54170000      -2.77050000
H        2.29580000      -0.99870000      -1.83330000
H        0.41650000      -2.27150000      -2.27930000
H       -0.33680000      -4.55730000      -1.29570000
H       -1.30780000      -4.40500000       0.19530000
H       -1.73010000      -3.48140000      -1.27840000
