21
Properties=species:S:1:pos:R:3 gdb_105787=T pbc="F F F"
O        0.15560000       1.24000000      -0.40880000
C       -0.04050000      -0.15230000      -0.29580000
C       -1.47420000      -0.53430000       0.12530000
C       -2.52850000      -0.02830000      -0.90740000
C       -2.78270000      -1.23190000      -1.82710000
C       -2.78570000      -2.41820000      -0.85320000
C       -1.65910000      -2.08880000       0.15200000
C       -1.79450000       0.05380000       1.48010000
O       -1.10880000       0.84430000       2.08640000
H        0.04000000       1.58900000       0.48480000
H        0.17120000      -0.58100000      -1.28190000
H        0.66900000      -0.60470000       0.41500000
H       -3.46290000       0.24190000      -0.39750000
H       -2.16150000       0.86690000      -1.41350000
H       -3.71020000      -1.13910000      -2.39880000
H       -1.96370000      -1.33460000      -2.54920000
H       -3.75010000      -2.46320000      -0.33350000
H       -2.63930000      -3.38530000      -1.34210000
H       -0.71620000      -2.56100000      -0.14480000
H       -1.88460000      -2.46330000       1.15630000
H       -2.76210000      -0.29320000       1.91210000
