21
Properties=species:S:1:pos:R:3 gdb_113211=T pbc="F F F"
C        0.51900000       1.25670000      -1.02700000
C        0.06710000       0.10760000      -0.14650000
O        1.00610000      -0.98550000      -0.03980000
C        0.72780000      -0.20650000       1.13530000
C        1.90920000       0.52420000       1.72810000
O        2.80610000      -0.39610000       2.33010000
C       -1.36320000      -0.28470000      -0.39290000
C       -2.19450000      -1.10600000       0.55360000
C       -2.48770000       0.36230000       0.38500000
H        1.58380000       1.46410000      -0.91870000
H        0.33180000       1.01000000      -2.07780000
H       -0.04580000       2.16530000      -0.79450000
H        0.15760000      -0.75220000       1.88810000
H        2.41640000       1.13600000       0.97150000
H        1.57060000       1.19130000       2.52870000
H        3.04560000      -1.03140000       1.64550000
H       -1.56530000      -0.45190000      -1.44850000
H       -2.87990000      -1.82120000       0.11280000
H       -1.76220000      -1.43790000       1.48970000
H       -2.21210000       1.02220000       1.20110000
H       -3.38240000       0.66320000      -0.14830000
