25
Properties=species:S:1:pos:R:3 gdb_122666=T pbc="F F F"
C        0.01300000       1.58430000      -0.04120000
C        0.01510000       0.05360000      -0.00740000
C        0.74610000      -0.52010000       1.21070000
C        0.75270000      -2.05170000       1.24880000
C        1.49900000      -2.62700000       2.44790000
C        1.53970000      -4.15930000       2.52040000
C        2.84070000      -4.41050000       3.29400000
C        3.73790000      -3.28180000       2.76790000
O        2.87100000      -2.20920000       2.40400000
H        1.03450000       1.97990000      -0.06370000
H       -0.51160000       1.96570000      -0.92300000
H       -0.48040000       1.99930000       0.84490000
H       -1.01980000      -0.31480000      -0.01860000
H        0.48190000      -0.33190000      -0.92370000
H        1.78270000      -0.16400000       1.22350000
H        0.27870000      -0.13600000       2.12860000
H       -0.27930000      -2.42870000       1.27020000
H        1.21540000      -2.44440000       0.33360000
H        1.04580000      -2.23010000       3.37330000
H        0.65470000      -4.57980000       3.00430000
H        1.60510000      -4.57930000       1.50940000
H        2.67160000      -4.29520000       4.37000000
H        3.26730000      -5.40240000       3.12560000
H        4.45690000      -2.92510000       3.51470000
H        4.30660000      -3.60720000       1.88410000
