17
Properties=species:S:1:pos:R:3 gdb_125965=T pbc="F F F"
C       -0.55320000       1.38180000      -0.09650000
C       -0.11430000      -0.05970000      -0.01030000
C        1.24820000      -0.46940000      -0.45790000
N        0.89000000      -0.51260000       0.96230000
C        1.47660000       0.35400000       1.87380000
C        0.97330000       1.13010000       2.89940000
N        2.01540000       1.69340000       3.57270000
N        3.13750000       1.31580000       3.04070000
N        2.81990000       0.50220000       2.00000000
H        0.29040000       2.06970000      -0.00130000
H       -1.03660000       1.56030000      -1.06230000
H       -1.27560000       1.62420000       0.68930000
H       -0.91440000      -0.78710000      -0.13110000
H        1.41860000      -1.43540000      -0.92410000
H        1.91480000       0.32640000      -0.78600000
H       -0.05170000       1.30230000       3.18140000
H        3.55190000       0.06370000       1.46520000
