16
Properties=species:S:1:pos:R:3 gdb_55980=T pbc="F F F"
C       -0.09120000       1.47410000      -0.03630000
C        0.09030000      -0.01030000       0.14700000
O        1.07040000      -0.55660000       0.57720000
O       -1.03260000      -0.67030000      -0.25700000
C       -1.00710000      -2.08370000      -0.21210000
C       -2.10030000      -2.75100000       0.67250000
N       -2.59380000      -3.38610000      -0.55320000
C       -1.72820000      -2.76040000      -1.41750000
O       -1.60290000      -2.76230000      -2.60970000
H        0.77430000       1.99830000       0.36640000
H       -0.20070000       1.70010000      -1.10110000
H       -1.00460000       1.80860000       0.46240000
H        0.00750000      -2.43870000      -0.03090000
H       -1.73570000      -3.44660000       1.43380000
H       -2.79310000      -2.03040000       1.11690000
H       -3.34680000      -4.03650000      -0.71850000
