14
Properties=species:S:1:pos:R:3 gdb_10372=T pbc="F F F"
N        0.10310000      -1.18820000       0.08650000
C        0.03340000      -0.03620000       0.03330000
C       -0.01530000       1.42530000       0.01030000
C       -0.19860000       2.03310000       1.45720000
C        1.33630000       2.21890000       1.54730000
C        1.42970000       2.06450000       0.00900000
C       -0.93730000       1.90080000      -1.01600000
N       -1.65460000       2.33140000      -1.81280000
H       -0.73650000       2.98010000       1.39150000
H       -0.69000000       1.38320000       2.18080000
H        1.69330000       3.15860000       1.96910000
H        1.81810000       1.39060000       2.07100000
H        2.21940000       1.43940000      -0.40670000
H        1.40660000       3.02150000      -0.51460000
