22
Properties=species:S:1:pos:R:3 gdb_13460=T pbc="F F F"
C       -0.88210000       0.15760000       3.40650000
O       -0.81900000      -1.03780000       2.66980000
C       -1.64710000      -1.01560000       1.52030000
C       -1.45660000      -2.30720000       0.77070000
C       -2.11300000      -3.59780000       1.21810000
C       -2.98690000      -3.68010000       2.45200000
C       -2.55020000      -2.93680000      -0.07340000
C       -3.91940000      -2.31890000      -0.27410000
H       -0.21470000       0.05080000       4.26550000
H       -0.55690000       1.02610000       2.81070000
H       -1.90140000       0.36200000       3.77380000
H       -2.69570000      -0.86140000       1.81760000
H       -1.37420000      -0.16020000       0.87740000
H       -0.44660000      -2.40790000       0.38220000
H       -1.49200000      -4.48070000       1.08620000
H       -3.64780000      -2.81730000       2.56280000
H       -3.62050000      -4.57350000       2.42160000
H       -2.36950000      -3.73320000       3.35440000
H       -2.18210000      -3.42210000      -0.97450000
H       -4.32150000      -1.86420000       0.63400000
H       -3.88990000      -1.54070000      -1.04520000
H       -4.63810000      -3.07840000      -0.60170000
