21
Properties=species:S:1:pos:R:3 gdb_71026=T pbc="F F F"
C       -0.05370000       1.49530000      -0.07490000
C        0.05210000      -0.00500000      -0.03410000
C        0.69760000      -0.94410000      -1.11340000
C        0.20000000      -1.89970000      -0.00970000
C        0.01880000      -3.29200000       0.56110000
C       -0.71530000      -2.85450000       1.89030000
C       -0.77190000      -1.30520000       1.74770000
C        0.58430000      -0.90220000       1.13110000
C       -1.08030000      -1.04340000       0.25830000
H        0.93650000       1.96200000      -0.12830000
H       -0.62490000       1.82960000      -0.94860000
H       -0.55670000       1.87660000       0.82080000
H        0.19220000      -0.99730000      -2.08420000
H        1.78170000      -0.86250000      -1.25080000
H       -0.60230000      -3.94360000      -0.06090000
H        0.96150000      -3.81100000       0.75900000
H       -1.71610000      -3.29210000       1.96490000
H       -0.15800000      -3.15990000       2.78190000
H       -1.24590000      -0.75290000       2.56230000
H        1.56960000      -0.85100000       1.60160000
H       -2.02360000      -1.15580000      -0.28250000
