22
Properties=species:S:1:pos:R:3 gdb_118188=T pbc="F F F"
C        0.02570000       1.57840000       0.05970000
C       -0.00600000       0.04870000       0.00850000
C        0.72920000      -0.52040000      -1.20930000
C        0.71920000      -2.04480000      -1.28570000
C        1.37480000      -2.59310000      -2.54860000
O        1.44120000      -2.51940000      -0.12010000
C        1.10220000      -3.74680000       0.34140000
N        1.82560000      -4.03250000       1.46740000
O        0.26310000      -4.47070000      -0.14420000
H        1.05500000       1.95190000       0.10400000
H       -0.44500000       2.01650000      -0.82780000
H       -0.50380000       1.95910000       0.93850000
H        0.44210000      -0.36310000       0.91930000
H       -1.04780000      -0.29760000      -0.00470000
H        0.27200000      -0.13660000      -2.13040000
H        1.77130000      -0.17380000      -1.21230000
H       -0.30420000      -2.42530000      -1.21230000
H        0.84270000      -2.23610000      -3.43600000
H        2.41750000      -2.26610000      -2.61740000
H        1.34290000      -3.68480000      -2.54710000
H        2.64600000      -3.48490000       1.66440000
H        1.81760000      -4.99290000       1.76470000
