12
Properties=species:S:1:pos:R:3 gdb_2258=T pbc="F F F"
O       -0.12290000       1.45260000       0.00410000
C       -0.03410000       0.08640000       0.07430000
C       -0.24980000      -0.83640000      -1.13840000
C       -1.15760000      -0.92390000       0.05650000
N       -0.51330000      -1.65010000       1.15760000
C        0.58660000      -0.76390000       1.18920000
O        1.58940000      -0.75140000       1.84200000
H        0.69660000       1.79300000      -0.37200000
H       -0.64760000      -0.30790000      -2.00070000
H        0.43940000      -1.64510000      -1.36450000
H       -2.22400000      -0.74530000       0.05380000
H       -0.39020000      -2.65720000       1.15470000
