19
Properties=species:S:1:pos:R:3 gdb_82409=T pbc="F F F"
C       -0.12370000       1.54480000      -0.05510000
C        0.10720000       0.03340000       0.02020000
C        0.76980000      -0.49620000      -1.23910000
O        2.15980000      -0.18390000      -1.37250000
C        1.78900000      -1.55990000      -1.20740000
C        2.23280000      -2.21160000       0.08850000
C        1.34510000      -1.83040000       1.29200000
C        0.91310000      -0.37230000       1.26140000
O        1.14660000       0.39860000       2.16060000
H        0.82710000       2.06590000      -0.19370000
H       -0.78140000       1.79340000      -0.89360000
H       -0.57530000       1.91150000       0.86830000
H       -0.86320000      -0.48090000       0.11340000
H        0.19300000      -0.35700000      -2.15540000
H        1.92920000      -2.15490000      -2.11040000
H        2.23560000      -3.29960000      -0.03220000
H        3.26990000      -1.91250000       0.27600000
H        0.43070000      -2.43830000       1.26110000
H        1.84880000      -2.02700000       2.24050000
