19
Properties=species:S:1:pos:R:3 gdb_31825=T pbc="F F F"
C       -0.00260000       1.45550000      -0.06240000
N       -0.09770000       0.01420000       0.05620000
C        0.58030000      -0.67730000       1.04960000
C        1.12360000      -0.04720000       2.18260000
N        1.73860000      -0.69230000       3.17190000
C        1.86760000      -2.02200000       3.10540000
C        2.57170000      -2.69910000       4.25360000
C        1.36870000      -2.73860000       2.01310000
C        0.72500000      -2.06980000       0.98550000
H        1.03350000       1.82260000      -0.12990000
H       -0.54020000       1.76970000      -0.95980000
H       -0.47740000       1.94610000       0.79430000
H       -0.14890000      -0.47560000      -0.82320000
H        1.05430000       1.03140000       2.29260000
H        2.03310000      -2.53120000       5.19230000
H        2.65600000      -3.77740000       4.09420000
H        3.57820000      -2.28890000       4.38650000
H        1.48560000      -3.81660000       1.97010000
H        0.32930000      -2.61630000       0.13330000
