13
Properties=species:S:1:pos:R:3 gdb_27376=T pbc="F F F"
C       -0.01020000       1.45480000       0.12730000
C       -0.02240000      -0.02450000      -0.05020000
N       -0.14730000      -0.62320000      -1.15750000
C       -0.14200000      -2.05300000      -1.18270000
O       -0.25830000      -2.64670000      -2.21910000
N        0.00410000      -2.72370000       0.04920000
C        0.12170000      -2.01260000       1.09920000
O        0.26510000      -2.52100000       2.31410000
O        0.12290000      -0.66870000       1.17280000
H        0.92930000       1.77010000       0.59200000
H       -0.12550000       1.93410000      -0.84320000
H       -0.82210000       1.76020000       0.79500000
H        0.25800000      -3.48400000       2.20670000
