18
Properties=species:S:1:pos:R:3 gdb_57100=T pbc="F F F"
C        0.02160000       1.55070000      -0.00460000
C       -0.00600000       0.01090000       0.04150000
C        0.66470000      -0.48390000       1.24930000
N        1.19230000      -0.87720000       2.19950000
C       -1.44910000      -0.53150000      -0.04600000
C       -1.58660000      -2.07060000      -0.01470000
O       -2.75610000      -2.27700000       0.76010000
C       -2.72880000      -1.25390000       1.71910000
O       -2.22290000      -0.09640000       1.06590000
H        1.04530000       1.92600000       0.06000000
H       -0.41810000       1.89850000      -0.94370000
H       -0.55840000       1.96020000       0.82460000
H        0.54730000      -0.38320000      -0.82190000
H       -1.89500000      -0.11870000      -0.96080000
H       -1.74130000      -2.51170000      -1.00110000
H       -0.71110000      -2.53760000       0.45980000
H       -3.74850000      -1.05990000       2.06330000
H       -2.07490000      -1.51710000       2.56630000
