19
Properties=species:S:1:pos:R:3 gdb_87733=T pbc="F F F"
C       -0.13360000       1.56730000       0.15870000
C       -0.13280000       0.06250000       0.23890000
O        1.03950000      -0.61690000      -0.22010000
C        0.71050000      -0.70310000       1.17920000
C        1.68530000      -0.11140000       2.20020000
C        1.65660000      -1.07900000       3.41750000
O        1.08690000      -0.50930000       4.59580000
C        0.85450000      -2.25990000       2.91490000
C        0.32060000      -2.03580000       1.71420000
H        0.81650000       1.98450000       0.50000000
H       -0.29580000       1.89150000      -0.87460000
H       -0.94120000       1.98440000       0.77050000
H       -1.06400000      -0.40950000      -0.08590000
H        2.68100000      -0.06720000       1.75060000
H        1.42350000       0.89870000       2.52460000
H        2.66670000      -1.36590000       3.72660000
H        0.14680000      -0.37970000       4.42590000
H        0.71100000      -3.14700000       3.52130000
H       -0.31600000      -2.71080000       1.15350000
