15
Properties=species:S:1:pos:R:3 gdb_54773=T pbc="F F F"
C        0.38130000       0.76920000      -0.78400000
C       -0.09070000       0.14310000       0.50840000
O        0.39260000       0.42780000       1.57960000
C       -1.23260000      -0.87740000       0.49550000
C       -2.09020000      -1.13810000      -0.77530000
O       -0.92860000      -1.83380000      -1.39520000
C       -0.88990000      -2.32160000       0.00710000
C       -2.41890000      -2.53940000      -0.18140000
O       -3.28360000      -3.33730000      -0.06120000
H        1.21160000       1.44420000      -0.57350000
H        0.67230000      -0.00420000      -1.49840000
H       -0.43810000       1.33130000      -1.24790000
H       -1.76180000      -0.82000000       1.45030000
H       -2.65830000      -0.44820000      -1.39510000
H       -0.07330000      -2.97700000       0.30050000
