21
Properties=species:S:1:pos:R:3 gdb_65143=T pbc="F F F"
C       -0.02470000       1.53460000       0.21440000
C        0.00590000       0.02510000       0.05570000
C        1.07720000      -0.55290000      -0.84300000
C        1.18580000      -0.70830000       0.65510000
C       -1.32240000      -0.70520000       0.07620000
C       -2.29890000      -0.49760000       1.28320000
C       -3.44180000      -0.38080000       0.26350000
O       -4.63420000      -0.43970000       0.34390000
C       -2.45800000      -0.27010000      -0.91100000
H        0.98990000       1.94280000       0.18340000
H       -0.59310000       2.02040000      -0.58640000
H       -0.46600000       1.83810000       1.17020000
H        0.83490000      -1.43200000      -1.43100000
H        1.75560000       0.13520000      -1.33630000
H        1.93770000      -0.12550000       1.17660000
H        1.01690000      -1.69250000       1.07950000
H       -1.13030000      -1.77520000      -0.04870000
H       -2.38440000      -1.29470000       2.02570000
H       -2.14410000       0.45020000       1.81010000
H       -2.36610000       0.76740000      -1.25010000
H       -2.66050000      -0.90020000      -1.78050000
