16
Properties=species:S:1:pos:R:3 gdb_45680=T pbc="F F F"
O       -0.17610000      -0.05600000      -0.04510000
C       -0.06950000       1.14540000       0.01080000
N       -1.11360000       2.06370000      -0.00840000
C       -0.66030000       3.37700000       0.23830000
C        0.67370000       3.42640000       0.21240000
C        1.71810000       4.27480000       0.88380000
C        2.57810000       3.17860000       1.50940000
C        2.27940000       1.95670000       1.05740000
C        1.19980000       2.02270000      -0.00050000
H       -2.07740000       1.77260000       0.01280000
H       -1.37810000       4.14410000       0.49500000
H        2.31630000       4.88160000       0.18680000
H        1.30190000       4.96770000       1.62350000
H        3.36570000       3.40190000       2.22070000
H        2.77650000       1.03550000       1.33550000
H        1.64070000       1.85880000      -0.99790000
