19
Properties=species:S:1:pos:R:3 gdb_82783=T pbc="F F F"
C       -0.09940000       1.46310000      -0.00100000
N       -0.00420000       0.01020000      -0.01270000
C        1.11080000      -0.50850000      -0.88620000
C        0.75040000      -1.92370000      -1.33170000
C        0.96050000      -2.71200000      -0.05410000
C        0.70830000      -2.06130000       1.25820000
C        0.74410000      -0.52460000       1.15530000
C        2.04560000      -0.72910000       0.36370000
N        2.12430000      -2.20730000       0.71090000
H        0.85620000       1.98340000       0.19950000
H       -0.47310000       1.81080000      -0.96970000
H       -0.81740000       1.77350000       0.76550000
H        1.42140000       0.17070000      -1.68230000
H       -0.27490000      -1.96960000      -1.70640000
H        1.43280000      -2.29200000      -2.10700000
H        0.89040000      -3.79570000      -0.08220000
H        0.37950000      -2.62470000       2.12560000
H        0.66290000       0.02320000       2.09510000
H        2.97510000      -0.17840000       0.48430000
