14
Properties=species:S:1:pos:R:3 gdb_125780=T pbc="F F F"
C       -0.00260000       1.45600000       0.03520000
C        0.01670000      -0.03140000      -0.00640000
N       -0.02820000      -0.69130000      -1.13490000
O        0.01170000      -2.05010000      -0.71120000
C        0.07500000      -2.00060000       0.62050000
O        0.12510000      -3.12500000       1.32660000
C        0.11100000      -4.34880000       0.68290000
N        0.16090000      -5.37270000       1.40290000
N        0.08250000      -0.81160000       1.12980000
H        0.89960000       1.82950000       0.52850000
H       -0.05800000       1.86320000      -0.97520000
H       -0.86220000       1.80420000       0.61520000
H        0.05660000      -4.27000000      -0.40250000
H        0.14440000      -6.21100000       0.82500000
