17
Properties=species:S:1:pos:R:3 gdb_34365=T pbc="F F F"
C        0.09110000      -1.18680000      -0.34440000
C        0.03750000      -0.00730000      -0.11520000
C       -0.01200000       1.42100000       0.11810000
C       -0.46400000       2.29350000      -1.10710000
C        0.94240000       2.96190000      -1.16640000
C        1.34510000       2.25220000       0.14920000
N        1.26850000       3.10650000       1.33720000
C        0.17700000       2.81000000       1.93150000
N       -0.58350000       1.77260000       1.42080000
H        0.14050000      -2.23050000      -0.53370000
H       -0.75290000       1.71850000      -1.98820000
H       -1.27790000       2.97580000      -0.84940000
H        1.53430000       2.64530000      -2.02860000
H        0.95930000       4.05150000      -1.10470000
H        2.27820000       1.68490000       0.13600000
H       -0.15660000       3.29850000       2.84320000
H       -1.58240000       1.74770000       1.55990000
