14
Properties=species:S:1:pos:R:3 gdb_20289=T pbc="F F F"
C       -0.03050000       1.47270000      -0.03580000
C       -0.31880000       1.90010000      -1.45680000
C        0.79470000       1.45820000      -2.32380000
C        1.46680000       0.40220000      -1.43550000
C        0.13350000      -0.36760000      -1.45670000
C       -0.02300000      -0.00470000       0.02650000
N        1.28010000       0.76610000       0.03760000
N       -0.51950000       0.70640000      -2.32690000
H       -0.28300000       2.09420000       0.81420000
H       -0.93290000       2.76230000      -1.68480000
H        1.18090000       1.97090000      -3.19780000
H        2.44230000      -0.01410000      -1.67140000
H       -0.00650000      -1.38180000      -1.82050000
H       -0.34820000      -0.62200000       0.85660000
