16
Properties=species:S:1:pos:R:3 gdb_23563=T pbc="F F F"
O       -0.11880000       1.32680000       0.08620000
N        0.02370000      -0.06770000      -0.02220000
C       -1.09990000      -0.64860000      -0.03920000
C       -2.55970000      -0.26970000       0.06550000
O       -3.22560000      -0.90330000      -1.04840000
C       -2.91650000      -1.70770000       0.09020000
C       -1.44930000      -2.11410000      -0.02800000
C       -0.82810000      -3.25570000      -0.77680000
C       -0.72160000      -3.19520000       0.72610000
H        0.79710000       1.62480000       0.08640000
H       -3.02620000       0.59770000       0.51110000
H       -3.72810000      -2.21290000       0.59950000
H       -1.49150000      -3.99110000      -1.21920000
H        0.05860000      -3.03280000      -1.35990000
H        0.23290000      -2.92940000       1.16660000
H       -1.31690000      -3.88820000       1.31200000
