21
Properties=species:S:1:pos:R:3 gdb_92749=T pbc="F F F"
C       -0.16960000       1.55600000       0.03030000
C        0.03680000       0.06070000      -0.02470000
C        0.01250000      -0.57300000      -1.20240000
C        0.12770000      -2.03630000      -1.54070000
C       -0.14030000      -3.00570000      -0.38900000
O       -0.17990000      -4.31070000      -0.95710000
C        0.91020000      -2.89340000       0.68780000
C        1.07420000      -1.81430000       1.44620000
C        0.23600000      -0.56050000       1.35240000
H        0.71050000       2.06350000       0.44700000
H       -0.37010000       1.97680000      -0.95830000
H       -1.01290000       1.81420000       0.68500000
H       -0.12950000       0.05630000      -2.08030000
H       -0.58840000      -2.26800000      -2.33940000
H        1.12010000      -2.25710000      -1.95890000
H       -1.12640000      -2.75190000       0.03800000
H       -0.37480000      -4.93400000      -0.25020000
H        1.57040000      -3.75150000       0.79380000
H        1.86110000      -1.81030000       2.19590000
H        0.68470000       0.20430000       1.99630000
H       -0.75590000      -0.74390000       1.79980000
