21
Properties=species:S:1:pos:R:3 gdb_85359=T pbc="F F F"
C       -0.22200000       1.60670000       0.00030000
C       -0.00450000       0.08530000       0.00060000
C        0.74990000      -0.36860000      -1.26350000
C        2.21200000       0.06630000      -1.28080000
O        2.79950000       0.32870000      -2.31150000
C        2.88470000       0.10120000       0.03500000
C        2.22340000      -0.13900000       1.17450000
C        0.74670000      -0.44190000       1.25030000
C        0.14610000       0.02620000       2.58460000
H        0.72310000       2.15540000       0.06260000
H       -0.72160000       1.91340000      -0.92410000
H       -0.85140000       1.92550000       0.83540000
H       -0.99410000      -0.38890000      -0.00850000
H        0.74900000      -1.46750000      -1.31460000
H        0.27400000      -0.00710000      -2.17910000
H        3.94660000       0.32680000       0.02160000
H        2.76490000      -0.12590000       2.11950000
H        0.65270000      -1.54060000       1.23010000
H        0.28060000       1.10120000       2.73640000
H       -0.92630000      -0.18970000       2.62690000
H        0.62430000      -0.48820000       3.42450000
