20
Properties=species:S:1:pos:R:3 gdb_61461=T pbc="F F F"
C        0.02230000       1.43300000      -0.12100000
C        0.01800000      -0.08740000       0.00130000
O        0.75470000      -0.47720000       1.19020000
C        2.09580000      -0.59330000       1.05120000
N        2.66210000      -0.89610000       2.25990000
O        2.71070000      -0.42820000       0.02170000
C       -1.36250000      -0.67350000       0.13660000
C       -2.13620000      -1.03200000      -1.10770000
C       -1.60450000      -2.11920000      -0.20890000
H        1.04470000       1.80100000      -0.23190000
H       -0.55470000       1.73950000      -0.99860000
H       -0.42710000       1.89190000       0.76550000
H        0.53040000      -0.52640000      -0.86010000
H        2.06820000      -1.24300000       2.99410000
H        3.61250000      -1.22290000       2.23020000
H       -1.93810000      -0.26870000       0.96500000
H       -3.20350000      -0.84250000      -1.11870000
H       -1.65100000      -0.88650000      -2.06750000
H       -0.75940000      -2.70060000      -0.56250000
H       -2.30820000      -2.68020000       0.39570000
