21
Properties=species:S:1:pos:R:3 gdb_90890=T pbc="F F F"
C       -0.16670000       1.57060000       0.00300000
C        0.03840000       0.05730000      -0.01310000
C        0.87970000      -0.48880000      -1.19710000
C        1.61000000      -1.69810000      -0.60720000
C        2.58230000      -1.47260000       0.54150000
C        2.29340000      -0.14090000       1.23510000
C        0.76830000      -0.52370000       1.21700000
O        0.07170000      -0.43380000       2.43020000
C        1.17080000      -1.96360000       0.80550000
H        0.78740000       2.10850000       0.03410000
H       -0.70520000       1.90600000      -0.88920000
H       -0.76050000       1.88350000       0.87040000
H       -0.94630000      -0.42900000      -0.03170000
H        0.24360000      -0.77940000      -2.03860000
H        1.58020000       0.26610000      -1.57480000
H        1.83930000      -2.54400000      -1.24570000
H        3.51100000      -2.02820000       0.60160000
H        2.65330000      -0.14500000       2.26700000
H        2.61020000       0.78550000       0.74210000
H       -0.03230000       0.49850000       2.64920000
H        0.79600000      -2.88960000       1.21930000
