19
Properties=species:S:1:pos:R:3 gdb_65148=T pbc="F F F"
C        0.12400000       1.55780000      -0.12850000
C        0.06100000       0.04570000      -0.06670000
C        1.19890000      -0.73580000      -0.62730000
N        0.98510000      -0.67310000       0.82980000
C       -1.31280000      -0.59650000      -0.10460000
C       -2.44440000      -0.04870000       0.82110000
C       -3.23380000       0.21410000      -0.48390000
O       -4.33230000       0.60250000      -0.77330000
N       -2.16360000      -0.20890000      -1.24220000
H        1.15990000       1.89920000      -0.21660000
H       -0.43310000       1.93890000      -0.98950000
H       -0.30160000       2.01470000       0.77160000
H        1.03150000      -1.71490000      -1.06960000
H        2.02860000      -0.18280000      -1.05960000
H        1.64030000      -0.01740000       1.24830000
H       -1.18780000      -1.68010000      -0.00760000
H       -2.90400000      -0.78890000       1.47740000
H       -2.20370000       0.84680000       1.39490000
H       -2.10610000      -0.43360000      -2.22530000
