17
Properties=species:S:1:pos:R:3 gdb_38413=T pbc="F F F"
C        0.09180000       1.67530000       0.06630000
C        1.59900000       1.47330000      -0.12750000
N        2.04720000       0.65700000       1.02760000
C        1.43880000      -0.00350000      -0.15460000
C       -0.07630000       0.11870000       0.06960000
C       -0.75000000      -0.63490000       1.23610000
N       -1.74160000      -1.52540000       0.60640000
C       -1.68830000      -1.26470000      -0.63030000
O       -0.81740000      -0.32940000      -1.09110000
H       -0.21020000       2.20580000       0.97280000
H       -0.40250000       2.10030000      -0.80930000
H        2.29230000       2.10930000      -0.66220000
H        3.05670000       0.53810000       0.94560000
H        1.95740000      -0.77200000      -0.71430000
H       -0.02500000      -1.21080000       1.81830000
H       -1.25580000       0.04360000       1.93160000
H       -2.29460000      -1.72560000      -1.40230000
