17
Properties=species:S:1:pos:R:3 gdb_100854=T pbc="F F F"
O        0.17850000       1.35760000      -0.08540000
C        0.13140000      -0.04980000      -0.06220000
C       -1.31590000      -0.53150000       0.08390000
O       -2.10940000       0.04550000      -0.94500000
C       -1.42810000      -2.08510000       0.10410000
C       -0.78510000      -2.63330000       1.38720000
O        0.31730000      -3.10610000       1.43310000
C       -2.81060000      -2.53820000       0.03290000
C       -3.94130000      -2.94510000       0.03090000
H       -0.54200000       1.63450000      -0.66610000
H        0.56060000      -0.48960000      -0.98160000
H        0.74770000      -0.38830000       0.77600000
H       -1.73390000      -0.12770000       1.01280000
H       -1.89760000      -0.39580000      -1.77660000
H       -0.84590000      -2.48780000      -0.73530000
H       -1.43040000      -2.54390000       2.28730000
H       -4.94460000      -3.29340000       0.00780000
