21
Properties=species:S:1:pos:R:3 gdb_61220=T pbc="F F F"
C       -0.01440000       1.52010000       0.34330000
C        0.00160000       0.02850000       0.06380000
C        1.28260000      -0.59390000      -0.44170000
C        0.82500000      -0.84630000       0.97500000
C       -1.30220000      -0.57730000      -0.44930000
O       -2.35500000      -0.46780000       0.49650000
C       -1.71350000      -0.00240000      -1.82630000
C       -2.87380000      -0.66590000      -2.40510000
C       -3.82410000      -1.22440000      -2.88370000
H        0.93960000       1.84380000       0.76960000
H       -0.18220000       2.11240000      -0.56330000
H       -0.79520000       1.77850000       1.06850000
H        1.21380000      -1.41230000      -1.15160000
H        2.13820000       0.05430000      -0.59940000
H        1.37110000      -0.36890000       1.78170000
H        0.43990000      -1.82960000       1.22270000
H       -1.15190000      -1.65600000      -0.57050000
H       -2.65760000       0.44620000       0.50990000
H       -1.92000000       1.07180000      -1.72170000
H       -0.85880000      -0.08010000      -2.50960000
H       -4.66680000      -1.71530000      -3.30310000
