21
Properties=species:S:1:pos:R:3 gdb_69974=T pbc="F F F"
C       -0.13370000       1.52800000       0.09650000
C        0.14610000       0.06160000       0.01510000
O       -0.75320000      -0.81980000       0.70610000
C        0.65110000      -0.92970000       0.98810000
C        1.29060000      -1.78890000      -0.12330000
C        0.39070000      -2.88470000      -0.76470000
C       -0.14760000      -1.84250000      -1.79460000
C        0.77170000      -0.74360000      -1.17220000
C        1.71730000       0.02220000      -2.07030000
H        0.73380000       2.11570000      -0.21860000
H       -0.97620000       1.79930000      -0.55050000
H       -0.39240000       1.80620000       1.12180000
H        0.94250000      -0.82890000       2.02920000
H        2.35840000      -1.98120000      -0.00680000
H        0.96390000      -3.69560000      -1.22020000
H       -0.36100000      -3.31180000      -0.09910000
H        0.10970000      -2.07280000      -2.83220000
H       -1.21820000      -1.64050000      -1.73120000
H        1.17600000       0.72480000      -2.71590000
H        2.44640000       0.59960000      -1.48940000
H        2.27800000      -0.65860000      -2.71970000
