20
Properties=species:S:1:pos:R:3 gdb_52315=T pbc="F F F"
N        0.03940000       1.16900000       0.16550000
C       -0.04270000      -0.08640000       0.26740000
O       -1.16730000      -0.72200000      -0.11180000
C       -1.14210000      -2.15060000      -0.07100000
C       -2.57040000      -2.65730000      -0.22800000
C       -2.61000000      -4.21070000      -0.22750000
C       -3.31560000      -4.55730000       1.10650000
O       -3.24740000      -3.38320000       1.90110000
C       -3.43150000      -2.30200000       1.00040000
H        0.94300000       1.48560000       0.51100000
H        0.73260000      -0.76090000       0.65790000
H       -0.50620000      -2.53140000      -0.88150000
H       -0.72850000      -2.49680000       0.88650000
H       -2.98890000      -2.23330000      -1.14420000
H       -3.15280000      -4.60770000      -1.08800000
H       -1.59890000      -4.62890000      -0.26130000
H       -4.36610000      -4.83520000       0.92410000
H       -2.83870000      -5.36880000       1.66160000
H       -3.12080000      -1.38000000       1.49590000
H       -4.49170000      -2.20800000       0.71450000
