19
Properties=species:S:1:pos:R:3 gdb_47600=T pbc="F F F"
O       -0.22510000       0.57390000       1.25460000
C       -0.12860000       1.40440000       0.38160000
C       -1.37430000       1.97240000      -0.30730000
O       -1.11890000       3.08730000      -1.13640000
C       -0.29340000       4.04230000      -0.47580000
C        1.13470000       3.50350000      -0.38110000
C        1.97460000       3.73010000       0.91110000
C        2.26650000       2.20190000       0.98410000
C        1.19100000       1.96680000      -0.10740000
H       -1.81380000       1.19160000      -0.93800000
H       -2.10680000       2.21130000       0.48150000
H       -0.35340000       4.96220000      -1.06340000
H       -0.69770000       4.25860000       0.52770000
H        1.69330000       3.76000000      -1.28460000
H        2.83860000       4.39140000       0.82150000
H        1.36060000       4.08040000       1.74690000
H        3.27220000       1.94120000       0.64790000
H        2.07380000       1.70250000       1.93500000
H        1.49540000       1.35800000      -0.96660000
