18
Properties=species:S:1:pos:R:3 gdb_106088=T pbc="F F F"
C       -0.24960000       1.53510000      -0.00620000
C        0.04330000       0.02930000       0.03070000
C        0.81160000      -0.44750000      -1.15840000
C        0.95870000      -1.83200000      -1.75800000
N        0.30300000      -0.70800000      -2.51550000
C        1.44200000       0.08990000      -3.10640000
C        2.22400000      -0.08550000      -1.79830000
C        2.44210000      -1.61330000      -1.77060000
O        3.39450000      -2.31630000      -1.58590000
H        0.67660000       2.11840000      -0.03110000
H       -0.83870000       1.79540000      -0.89070000
H       -0.81390000       1.84070000       0.87930000
H        0.60380000      -0.22360000       0.93920000
H       -0.89540000      -0.53510000       0.07310000
H        0.37470000      -2.72530000      -1.58390000
H        1.87460000      -0.32400000      -4.02420000
H        1.08300000       1.10570000      -3.28500000
H        2.99230000       0.59230000      -1.43620000
