22
Properties=species:S:1:pos:R:3 gdb_120664=T pbc="F F F"
C       -0.48160000       1.19010000      -0.51770000
O       -0.68780000      -0.20000000      -0.58510000
C       -1.06640000      -0.75700000       0.65870000
C       -1.18980000      -2.24850000       0.49420000
N       -2.15360000      -2.90740000       1.40290000
C       -2.42420000      -2.87240000      -0.03150000
C       -3.61740000      -2.18440000      -0.70390000
C       -3.43400000      -3.16850000      -1.89840000
C       -2.49440000      -4.04500000      -1.01610000
H       -0.19880000       1.52930000      -1.51740000
H       -1.39260000       1.72540000      -0.20550000
H        0.32410000       1.45100000       0.18730000
H       -0.31680000      -0.51630000       1.43240000
H       -2.02900000      -0.34560000       1.00070000
H       -0.25420000      -2.76330000       0.28060000
H       -1.81050000      -3.82610000       1.67460000
H       -4.54910000      -2.34950000      -0.15500000
H       -3.51300000      -1.11940000      -0.92130000
H       -4.33490000      -3.65150000      -2.28120000
H       -2.90050000      -2.70730000      -2.73230000
H       -1.55520000      -4.38680000      -1.46000000
H       -3.01670000      -4.90860000      -0.59000000
