23
Properties=species:S:1:pos:R:3 gdb_41791=T pbc="F F F"
C       -0.03920000       1.57640000      -0.24600000
C        1.44420000       2.03650000      -0.25590000
C        2.30490000       0.76810000      -0.00840000
C        1.38290000      -0.39040000      -0.43300000
C       -0.02790000       0.04430000       0.00670000
C       -0.35920000      -0.32440000       1.46080000
C        0.51850000       0.20490000       2.56680000
C        1.79350000       0.60060000       2.55860000
C        2.80360000       0.65710000       1.44040000
H       -0.62540000       2.09880000       0.51570000
H       -0.51080000       1.79420000      -1.20920000
H        1.69810000       2.47900000      -1.22400000
H        1.64100000       2.80210000       0.50040000
H        3.19980000       0.78950000      -0.64000000
H        1.40840000      -0.49540000      -1.52430000
H        1.68480000      -1.35490000      -0.00980000
H       -0.78510000      -0.44680000      -0.61440000
H       -1.38910000      -0.00170000       1.66620000
H       -0.38720000      -1.42250000       1.54760000
H        0.02110000       0.21990000       3.53630000
H        2.20640000       0.89800000       3.52220000
H        3.44940000      -0.23200000       1.52300000
H        3.47230000       1.50680000       1.63490000
