17
Properties=species:S:1:pos:R:3 gdb_81514=T pbc="F F F"
C       -0.01210000       1.55900000      -0.03190000
N        0.04510000       0.09600000       0.01250000
C       -1.02700000      -0.74110000       0.66780000
C       -0.00940000      -1.90900000       0.56900000
C        0.75720000      -0.66780000       1.10520000
C       -0.42720000      -0.44340000       2.10610000
O       -0.51280000       0.82990000       2.68410000
C       -0.66530000      -1.45510000       3.15080000
N       -0.89710000      -2.20710000       3.99850000
H        0.98220000       1.91780000      -0.31840000
H       -0.69730000       1.83280000      -0.84160000
H       -0.31870000       2.06890000       0.88320000
H       -2.07390000      -0.71190000       0.36240000
H       -0.13530000      -2.76450000       1.23110000
H        0.25190000      -2.17720000      -0.45160000
H        1.82050000      -0.55020000       1.31600000
H       -1.32250000       0.88160000       3.20460000
