17
Properties=species:S:1:pos:R:3 gdb_70137=T pbc="F F F"
O        0.02780000       1.34740000      -0.00840000
C        0.01400000      -0.03620000      -0.03240000
C       -0.53180000      -0.69820000      -1.27530000
C       -1.33410000      -0.76580000       0.00930000
C       -1.39820000      -2.06120000       0.72750000
C       -0.31190000      -2.71130000       1.14580000
C        1.08360000      -2.15170000       0.99600000
C        1.10630000      -0.65250000       0.76670000
O        1.94510000       0.07410000       1.26940000
H        0.81200000       1.56690000       0.52280000
H       -0.85740000       0.00380000      -2.03430000
H       -0.08520000      -1.61520000      -1.64370000
H       -2.19550000      -0.10950000       0.06940000
H       -2.38250000      -2.49890000       0.86800000
H       -0.39860000      -3.68670000       1.61460000
H        1.70100000      -2.35320000       1.87630000
H        1.59870000      -2.63820000       0.15250000
