16
Properties=species:S:1:pos:R:3 gdb_20547=T pbc="F F F"
C       -0.02510000       1.54050000       0.02630000
C        0.03430000       0.00250000       0.00920000
C        0.72540000      -0.51790000      -1.26390000
C        0.72480000      -0.51410000       1.23490000
N        0.15340000      -1.29670000       2.14610000
N        1.15340000      -1.46720000       3.00270000
N        2.27700000      -0.84910000       2.67450000
N        2.02080000      -0.23650000       1.54920000
H        0.98330000       1.96440000       0.03690000
H       -0.54460000       1.90940000      -0.86350000
H       -0.55680000       1.90790000       0.90900000
H       -0.98720000      -0.39080000       0.04250000
H        1.76420000      -0.17730000      -1.30440000
H        0.72550000      -1.61140000      -1.29740000
H        0.20700000      -0.14900000      -2.15420000
H        1.06940000      -2.02380000       3.84000000
