21
Properties=species:S:1:pos:R:3 gdb_74489=T pbc="F F F"
C        0.04480000       1.50780000      -0.05240000
C       -0.02300000       0.00920000       0.02100000
C       -1.16310000      -0.68550000      -0.00470000
C       -1.18260000      -2.16710000       0.01110000
C       -2.12280000      -2.88560000       0.96160000
C       -2.38970000      -2.90870000      -0.51860000
C        0.19050000      -2.74810000      -0.26650000
O        1.18720000      -2.07700000       0.48460000
C        1.30060000      -0.71460000       0.12580000
H        0.64770000       1.83950000      -0.90830000
H       -0.95110000       1.94750000      -0.15330000
H        0.51670000       1.93230000       0.84330000
H       -2.12000000      -0.16780000      -0.04810000
H       -1.76130000      -3.79300000       1.43460000
H       -2.76620000      -2.28040000       1.59090000
H       -3.21610000      -2.32100000      -0.90490000
H       -2.21570000      -3.83510000      -1.05760000
H        0.24530000      -3.80340000       0.01790000
H        0.41330000      -2.67250000      -1.34510000
H        1.85520000      -0.60830000      -0.82680000
H        1.92170000      -0.25010000       0.90180000
