21
Properties=species:S:1:pos:R:3 gdb_94686=T pbc="F F F"
C        0.18950000       1.55090000      -0.04480000
C        0.02420000       0.04000000       0.02240000
O        0.67180000      -0.53270000      -1.11500000
C        1.21730000      -1.79810000      -0.77940000
C        1.42760000      -1.78300000       0.72400000
C        1.75070000      -3.05390000       1.45670000
O        2.10710000      -0.58330000       1.14140000
C        0.67040000      -0.62840000       1.23240000
C        0.05560000      -0.48180000       2.59530000
H        1.24720000       1.80990000       0.04810000
H       -0.18120000       1.92660000      -1.00200000
H       -0.37260000       2.04110000       0.75640000
H       -1.04850000      -0.22400000       0.01970000
H        0.53380000      -2.62150000      -1.04820000
H        2.14920000      -1.92570000      -1.34180000
H        2.71830000      -3.44940000       1.12840000
H        1.80870000      -2.88340000       2.53390000
H        0.99230000      -3.81970000       1.26250000
H        0.08470000       0.56390000       2.92010000
H       -0.99210000      -0.80050000       2.58460000
H        0.59480000      -1.07590000       3.33620000
