18
Properties=species:S:1:pos:R:3 gdb_83175=T pbc="F F F"
C       -0.50230000       1.40620000       0.09570000
C       -0.07570000      -0.03880000      -0.00820000
C        0.71390000      -0.55610000      -1.20850000
N        1.24360000       0.39360000      -2.14600000
C        2.70000000       0.44050000      -2.09710000
C        3.15800000       0.89400000      -0.71550000
O        4.14460000       1.54230000      -0.51400000
O        2.35500000       0.54030000       0.32630000
C        1.36540000      -0.45220000       0.14160000
H        0.18600000       2.05760000      -0.44390000
H       -1.50010000       1.54120000      -0.33420000
H       -0.53750000       1.72840000       1.14100000
H       -0.77560000      -0.75760000       0.41060000
H        0.49010000      -1.55850000      -1.57500000
H        0.89480000       0.25130000      -3.08390000
H        3.19190000      -0.52540000      -2.31480000
H        3.08310000       1.17360000      -2.80920000
H        1.60790000      -1.35060000       0.69980000
