19
Properties=species:S:1:pos:R:3 gdb_114781=T pbc="F F F"
C        0.04770000       1.41070000       0.03610000
O       -0.15070000       0.02340000      -0.08750000
C        0.60050000      -0.57340000      -1.12650000
C        2.10490000      -0.82470000      -0.77630000
C        2.16470000      -2.32900000      -0.54740000
O        1.27630000      -2.64030000       0.57730000
C        0.27340000      -3.03030000      -0.35620000
C        1.17290000      -2.97250000      -1.54820000
C        0.04970000      -1.96280000      -1.41220000
H        1.08190000       1.66660000       0.31390000
H       -0.19470000       1.94190000      -0.89900000
H       -0.62000000       1.76450000       0.82560000
H        0.52120000       0.05530000      -2.02780000
H        2.75900000      -0.53600000      -1.60690000
H        2.40800000      -0.26900000       0.11490000
H        3.15210000      -2.77350000      -0.41170000
H       -0.48080000      -3.73690000      -0.03130000
H        1.36590000      -3.64440000      -2.37240000
H       -0.83600000      -2.07180000      -2.02780000
