20
Properties=species:S:1:pos:R:3 gdb_103885=T pbc="F F F"
C       -0.01770000       1.53060000      -0.47940000
C        0.00580000       0.12570000       0.13650000
C       -1.36720000      -0.52130000       0.17600000
O       -2.30800000       0.18410000       0.94780000
C       -1.89540000      -1.27960000      -1.02240000
C       -1.56160000      -2.00900000       0.26490000
C       -0.40640000      -2.99490000       0.34510000
C       -0.78830000      -4.32860000      -0.12510000
N       -1.10010000      -5.37750000      -0.49630000
H        0.98680000       1.96170000      -0.50840000
H       -0.40370000       1.50780000      -1.50430000
H       -0.64520000       2.20920000       0.10760000
H        0.69600000      -0.50300000      -0.43610000
H        0.39710000       0.18120000       1.15980000
H       -2.56890000       0.96950000       0.45490000
H       -2.94350000      -1.16900000      -1.27570000
H       -1.23330000      -1.41860000      -1.87170000
H       -2.42070000      -2.29220000       0.86420000
H        0.44510000      -2.65740000      -0.25440000
H       -0.04670000      -3.08490000       1.37720000
