13
Properties=species:S:1:pos:R:3 gdb_127685=T pbc="F F F"
C       -0.00750000       1.43480000      -0.04250000
N       -0.03550000      -0.02270000      -0.00430000
N       -0.08470000      -0.63040000      -1.23280000
C       -0.11090000      -1.89970000      -1.26100000
O       -0.09560000      -2.73930000      -0.19590000
C       -0.04630000      -2.21940000       1.08740000
O       -0.03270000      -2.95350000       2.02070000
C       -0.01250000      -0.69390000       1.19830000
O        0.03090000      -0.15510000       2.28000000
H        0.87340000       1.77190000      -0.59450000
H       -0.90570000       1.80740000      -0.54130000
H        0.03030000       1.79230000       0.98440000
H       -0.14990000      -2.42490000      -2.20550000
