18
Properties=species:S:1:pos:R:3 gdb_39672=T pbc="F F F"
C        0.03600000       1.11890000      -0.37070000
C        1.48340000       1.44400000       0.04680000
C        1.42200000       0.08460000       0.77780000
O        0.04850000      -0.11880000       0.37910000
C        2.32890000      -1.03460000       0.26950000
C        1.81940000      -2.44170000       0.69140000
O        1.61870000      -3.13540000      -0.56530000
C        1.94320000      -2.24090000      -1.52200000
N        2.35610000      -1.08600000      -1.20530000
H       -0.73680000       1.80360000      -0.00270000
H       -0.11590000       0.94010000      -1.44060000
H        2.20450000       1.48770000      -0.76810000
H        1.59590000       2.31110000       0.69870000
H        1.50690000       0.14020000       1.87270000
H        3.34420000      -0.83960000       0.63840000
H        2.53870000      -3.01250000       1.28300000
H        0.85870000      -2.40420000       1.21040000
H        1.82770000      -2.61050000      -2.53520000
