16
Properties=species:S:1:pos:R:3 gdb_44230=T pbc="F F F"
O       -0.07520000       0.06250000      -0.43020000
C       -0.09180000       1.21310000      -0.10990000
C       -1.18120000       2.28040000       0.15200000
C       -0.01320000       3.28810000       0.05870000
N        0.97710000       2.14610000       0.04090000
C        1.61320000       2.62930000      -1.23120000
C        0.51430000       3.70590000      -1.32560000
C       -0.19140000       4.24870000      -2.48770000
O        0.73510000       5.03650000      -1.72230000
H       -1.94910000       2.32710000      -0.62270000
H       -1.66160000       2.22170000       1.13170000
H        0.09860000       4.03280000       0.84850000
H        2.61060000       3.04120000      -1.05750000
H        1.65610000       1.86970000      -2.01590000
H        0.13900000       3.98440000      -3.49100000
H       -1.23620000       4.54320000      -2.40010000
