14
Properties=species:S:1:pos:R:3 gdb_27330=T pbc="F F F"
N        0.02390000       1.37650000       0.15480000
C       -0.06150000       0.00320000       0.05630000
C       -1.19560000      -0.73200000       0.03090000
N       -1.09940000      -2.12290000      -0.00980000
C        0.11340000      -2.70540000      -0.01700000
O        0.06570000      -4.04840000      -0.04230000
N        1.24710000      -2.08180000      -0.00680000
C        1.25620000      -0.69600000       0.01490000
O        2.28650000      -0.03970000      -0.00820000
H        0.96180000       1.69080000      -0.06680000
H       -0.71390000       1.92050000      -0.26470000
H       -2.19870000      -0.32840000       0.04630000
H       -1.92370000      -2.70070000      -0.02610000
H        0.98880000      -4.33860000      -0.05020000
