13
Properties=species:S:1:pos:R:3 gdb_49206=T pbc="F F F"
O       -0.17730000       0.00410000       0.00230000
C       -0.03630000       1.19970000       0.00900000
C        1.26350000       1.90530000       0.00050000
C        1.37160000       3.25000000       0.00980000
C        2.78160000       3.76500000      -0.00120000
C        3.61860000       2.48260000      -0.02010000
O        4.81200000       2.38810000      -0.03370000
C        2.61680000       1.28180000      -0.01860000
O        2.93600000       0.12460000      -0.03140000
H       -0.91180000       1.89010000       0.02270000
H        0.51410000       3.91780000       0.02410000
H        2.99710000       4.39030000      -0.87630000
H        3.01570000       4.37660000       0.87880000
