18
Properties=species:S:1:pos:R:3 gdb_92062=T pbc="F F F"
C        0.03770000       1.52640000      -0.06630000
C        0.03930000       0.01040000       0.00640000
O        0.73140000      -0.48980000      -1.14470000
C        0.72840000      -1.88080000      -1.21240000
C        2.05280000      -2.58030000      -1.07430000
C        1.04470000      -2.60810000       0.06300000
N        1.22430000      -1.75960000       1.19730000
C        0.71520000      -0.49390000       1.29500000
O        0.80540000       0.17560000       2.30530000
H        1.06270000       1.90250000      -0.11770000
H       -0.50480000       1.85810000      -0.95470000
H       -0.43320000       1.93780000       0.82740000
H       -0.99670000      -0.36720000       0.00220000
H       -0.02630000      -2.30120000      -1.87570000
H        2.21810000      -3.49320000      -1.63520000
H        2.91700000      -1.93990000      -0.94370000
H        0.52730000      -3.54300000       0.26180000
H        1.74730000      -2.08560000       1.99770000
