23
Properties=species:S:1:pos:R:3 gdb_73811=T pbc="F F F"
C        0.12540000       1.51070000      -0.09140000
C        0.01940000       0.01930000      -0.01030000
C       -1.08510000      -0.73960000       0.08030000
C       -2.51370000      -0.29110000       0.14400000
C       -0.74960000      -2.20920000       0.06340000
C       -1.53720000      -3.17750000       0.91570000
C       -0.12610000      -2.66950000      -1.24270000
C        0.75920000      -2.26190000      -0.08910000
C        1.27870000      -0.83080000      -0.05230000
H        0.76330000       1.90360000       0.71170000
H        0.59070000       1.82530000      -1.03490000
H       -0.84510000       2.00750000      -0.01860000
H       -2.60920000       0.79700000       0.13830000
H       -3.08810000      -0.68400000      -0.70530000
H       -3.00830000      -0.66280000       1.05010000
H       -2.58330000      -3.24380000       0.59420000
H       -1.11250000      -4.18430000       0.85290000
H       -1.53210000      -2.87940000       1.97080000
H       -0.16950000      -3.73020000      -1.47310000
H       -0.19910000      -2.01630000      -2.10700000
H        1.33170000      -3.04090000       0.40220000
H        1.90600000      -0.58590000      -0.92100000
H        1.90550000      -0.65050000       0.83340000
