24
Properties=species:S:1:pos:R:3 gdb_6047=T pbc="F F F"
C        0.06430000       1.55120000       0.05050000
C       -0.02190000       0.01540000       0.04670000
C        0.86450000      -0.53680000       1.17830000
C       -1.49210000      -0.52170000       0.04960000
C       -2.29890000      -0.03220000       1.26820000
C       -2.20910000      -0.08050000      -1.24420000
C       -1.45570000      -2.06390000       0.06840000
O       -2.77770000      -2.56670000      -0.09110000
H        1.10670000       1.86750000      -0.06060000
H       -0.50330000       2.00570000      -0.76490000
H       -0.30330000       1.97170000       0.99250000
H        0.41840000      -0.32880000      -0.90070000
H        0.98360000      -1.62240000       1.13230000
H        1.86640000      -0.10000000       1.11160000
H        0.46730000      -0.28340000       2.16720000
H       -2.45740000       1.04950000       1.23790000
H       -3.27820000      -0.51690000       1.28040000
H       -1.79880000      -0.27310000       2.21220000
H       -1.62860000      -0.36080000      -2.13120000
H       -3.18540000      -0.56300000      -1.31870000
H       -2.36390000       1.00120000      -1.27200000
H       -0.80150000      -2.42300000      -0.74380000
H       -1.03230000      -2.41750000       1.01850000
H       -2.74760000      -3.52160000       0.01180000
