19
Properties=species:S:1:pos:R:3 gdb_36053=T pbc="F F F"
C       -0.18710000      -1.05010000      -0.49060000
C       -0.04690000       0.11410000      -0.22700000
C        0.13810000       1.52800000       0.07160000
C        1.62670000       1.95590000       0.17270000
C        2.35790000       1.88470000      -1.21380000
C        2.09050000       3.39970000      -1.41470000
C        1.76620000       3.51830000       0.09740000
C        2.28360000       1.30720000       1.29290000
C        2.84170000       0.79410000       2.22670000
H       -0.31510000      -2.08080000      -0.71060000
H       -0.34440000       2.12920000      -0.70940000
H       -0.36310000       1.78040000       1.01370000
H        3.41900000       1.66250000      -1.08730000
H        1.93410000       1.18370000      -1.93600000
H        2.92290000       4.00070000      -1.78530000
H        1.22210000       3.59440000      -2.04930000
H        0.88390000       4.09380000       0.39060000
H        2.62100000       3.86360000       0.68150000
H        3.33110000       0.33030000       3.04690000
