16
Properties=species:S:1:pos:R:3 gdb_125429=T pbc="F F F"
C        0.01940000       1.45700000       0.18590000
C       -0.04950000      -0.01860000       0.02690000
N       -1.06830000      -0.80580000       0.20400000
C       -0.53610000      -2.04400000      -0.08810000
N        0.73150000      -2.02460000      -0.41330000
O        1.06340000      -0.66600000      -0.34540000
C       -1.32540000      -3.28820000      -0.03780000
C       -1.32960000      -4.19730000      -1.22540000
N       -0.63660000      -4.58660000       0.00230000
H        0.76810000       1.72890000       0.93590000
H        0.30640000       1.93310000      -0.75650000
H       -0.95620000       1.82960000       0.49660000
H       -2.21740000      -3.21380000       0.57560000
H       -2.22670000      -4.76630000      -1.45200000
H       -0.74210000      -3.88680000      -2.08460000
H        0.36410000      -4.42920000      -0.10080000
