22
Properties=species:S:1:pos:R:3 gdb_120793=T pbc="F F F"
C        0.09210000       1.52970000      -0.52990000
C        0.26240000       0.02310000      -0.32100000
C        0.50230000      -0.34410000       1.14440000
N        0.61930000      -1.79160000       1.29070000
C        1.95270000      -2.38370000       1.27920000
C        1.13250000      -2.37610000       2.52370000
C        1.56530000      -1.54620000       3.72920000
C        0.44060000      -1.11420000       4.55430000
C       -0.49770000      -0.77370000       5.22380000
H        0.98180000       2.08180000      -0.20630000
H       -0.07930000       1.76670000      -1.58410000
H       -0.76030000       1.91600000       0.04020000
H       -0.62510000      -0.51440000      -0.67280000
H        1.10360000      -0.34460000      -0.92240000
H        1.39170000       0.19960000       1.50890000
H       -0.34520000      -0.01360000       1.75660000
H        2.07790000      -3.29120000       0.69410000
H        2.80810000      -1.70690000       1.25180000
H        0.61350000      -3.29010000       2.80830000
H        2.24730000      -2.15610000       4.33620000
H        2.14620000      -0.67440000       3.40980000
H       -1.32230000      -0.46710000       5.81830000
