20
Properties=species:S:1:pos:R:3 gdb_95632=T pbc="F F F"
C        0.02400000       1.58790000      -0.00700000
C        0.06410000       0.05870000      -0.05380000
C        0.83620000      -0.49050000      -1.25930000
C        0.73630000      -2.00740000      -1.28150000
O        1.15570000      -2.62830000      -0.05260000
C        0.86860000      -2.05080000       1.14170000
N        0.89240000      -2.71070000       2.22530000
C        0.67820000      -0.53930000       1.21460000
O        1.96240000       0.05650000       1.39980000
H        1.03320000       2.00050000       0.06060000
H       -0.45660000       1.98840000      -0.90530000
H       -0.54100000       1.93980000       0.86260000
H       -0.96790000      -0.31790000      -0.10960000
H        0.43000000      -0.09860000      -2.19830000
H        1.88460000      -0.18210000      -1.19360000
H       -0.29900000      -2.31750000      -1.48240000
H        1.37460000      -2.44840000      -2.05110000
H        1.11020000      -3.69200000       2.03560000
H        0.03670000      -0.34290000       2.08270000
H        2.35800000      -0.37250000       2.16690000
