19
Properties=species:S:1:pos:R:3 gdb_7277=T pbc="F F F"
C        0.01210000       1.53620000       0.15490000
C       -0.04110000       0.01590000      -0.00890000
O       -1.38610000      -0.45100000      -0.09500000
C        0.69200000      -0.51790000      -1.25440000
C        0.83690000      -2.04370000      -1.19200000
C       -0.03470000      -0.07770000      -2.55070000
C        0.69370000      -0.45380000      -3.75920000
N        1.28380000      -0.75090000      -4.70780000
H        1.04680000       1.89180000       0.19470000
H       -0.50340000       2.05010000      -0.66150000
H       -0.47390000       1.83450000       1.09100000
H        0.45470000      -0.43800000       0.86510000
H       -1.86410000      -0.14490000       0.68150000
H        1.69170000      -0.06730000      -1.25730000
H        1.34310000      -2.42980000      -2.08070000
H        1.42230000      -2.33910000      -0.31560000
H       -0.14620000      -2.51680000      -1.11670000
H       -1.03240000      -0.52610000      -2.57760000
H       -0.17570000       1.00770000      -2.56930000
