20
Properties=species:S:1:pos:R:3 gdb_117634=T pbc="F F F"
C        0.18230000       1.60470000       0.17540000
C       -0.07750000       0.10420000      -0.03420000
O        0.41560000      -0.64470000       1.07690000
C       -1.56950000      -0.21650000      -0.29080000
C       -2.50970000       0.13310000       0.86180000
O       -2.17480000      -0.54730000       2.08260000
C        0.69430000      -0.33380000      -1.29870000
N        1.58310000      -1.33470000      -1.09800000
O        0.48330000       0.19340000      -2.37740000
H        1.24640000       1.76390000       0.36960000
H       -0.09780000       2.16860000      -0.71700000
H       -0.37290000       1.98610000       1.03710000
H       -0.27970000      -0.62930000       1.75230000
H       -1.88670000       0.31280000      -1.19470000
H       -1.65580000      -1.29020000      -0.50660000
H       -2.46020000       1.19760000       1.10590000
H       -3.54770000      -0.08600000       0.57850000
H       -2.38960000      -1.47950000       1.96680000
H        1.71460000      -1.69750000      -0.16910000
H        2.14380000      -1.65170000      -1.87050000
