14
Properties=species:S:1:pos:R:3 gdb_20684=T pbc="F F F"
C       -0.02830000       1.48630000      -0.00480000
C        0.00220000      -0.01500000      -0.02770000
N       -0.03050000      -0.62770000      -1.16720000
C       -0.00250000      -2.02280000      -1.19100000
N       -0.03280000      -2.65360000      -2.29940000
N        0.06120000      -2.64160000       0.07810000
N        0.09560000      -2.02980000       1.26150000
C        0.06730000      -0.73440000       1.22900000
H        0.86520000       1.88150000       0.49240000
H       -0.07780000       1.87300000      -1.02250000
H       -0.89400000       1.84480000       0.56420000
H       -0.00570000      -3.66360000      -2.15680000
H        0.08450000      -3.64950000       0.13140000
H        0.09460000      -0.22150000       2.18330000
