15
Properties=species:S:1:pos:R:3 gdb_77839=T pbc="F F F"
O        0.34920000       1.29200000      -0.32030000
C        0.11400000      -0.05320000      -0.09280000
C        0.03540000      -0.64930000       1.37330000
C       -1.43740000      -0.06890000       1.46500000
C       -1.64660000       1.34860000       1.68420000
C       -1.86900000       2.50960000       1.91500000
C       -1.35560000      -0.64040000      -0.01190000
C       -0.65950000      -1.82500000       0.67250000
O       -0.65750000      -3.01510000       0.66280000
H       -0.21680000       1.82850000       0.25140000
H        0.78040000      -0.59660000      -0.76550000
H        0.79150000      -0.64340000       2.15440000
H       -2.09990000      -0.63410000       2.12660000
H       -2.06030000       3.53580000       2.11360000
H       -2.13980000      -0.62450000      -0.76470000
