12
Properties=species:S:1:pos:R:3 gdb_25124=T pbc="F F F"
O        0.23770000      -0.05450000       0.06240000
C        0.05710000       1.11590000      -0.09360000
O       -1.19160000       1.54730000      -0.47540000
C       -1.54870000       2.79000000      -0.90410000
C       -0.77710000       3.78850000      -1.33900000
C        0.69560000       3.74500000      -1.45780000
O        1.29360000       4.21040000      -2.39560000
N        1.40530000       3.21820000      -0.34910000
C        1.12060000       2.13070000       0.23160000
H       -2.63050000       2.85620000      -0.92290000
H       -1.26850000       4.65970000      -1.75650000
H        1.73930000       1.80510000       1.07000000
