14
Properties=species:S:1:pos:R:3 gdb_42149=T pbc="F F F"
O        0.08320000      -0.01880000      -0.45710000
C       -0.04770000       1.14080000      -0.13100000
C        1.13530000       1.97050000       0.18220000
N        2.06460000       2.61400000       0.42580000
C       -1.28560000       1.83820000      -0.00730000
C       -2.33250000       2.43780000       0.10000000
C       -3.56270000       3.13830000       0.22440000
C       -3.70950000       4.21430000       1.30220000
C       -3.61940000       4.62640000      -0.12680000
H       -4.45110000       2.55690000       0.00080000
H       -4.67050000       4.25770000       1.80120000
H       -2.85250000       4.38480000       1.94190000
H       -2.70020000       5.08150000      -0.47410000
H       -4.51690000       4.96000000      -0.63430000
