16
Properties=species:S:1:pos:R:3 gdb_81902=T pbc="F F F"
C        0.13850000       1.63490000      -0.02140000
C        0.05990000       0.10860000      -0.01780000
C        0.72240000      -0.58830000      -1.19970000
N        2.17850000      -0.48020000      -1.13980000
C        1.52520000      -1.76880000      -0.74970000
C        1.43930000      -1.85190000       0.73980000
O        1.76350000      -2.75220000       1.46470000
C        0.73840000      -0.53030000       1.20110000
O        0.71950000      -0.12870000       2.33110000
H        1.17360000       1.95660000      -0.16310000
H       -0.47220000       2.06030000      -0.82320000
H       -0.21650000       2.02760000       0.93460000
H       -0.99280000      -0.21040000       0.02940000
H        0.22710000      -0.60780000      -2.16520000
H        2.59180000      -0.59900000      -2.06150000
H        1.67430000      -2.65720000      -1.35080000
