12
Properties=species:S:1:pos:R:3 gdb_1212=T pbc="F F F"
C       -0.13690000       1.44860000       0.01140000
C        0.06440000      -0.04370000       0.00180000
O        1.11440000      -0.62930000      -0.01230000
O       -1.13520000      -0.68670000       0.00980000
C       -1.03320000      -2.11340000       0.00070000
C       -2.38740000      -2.66280000       0.01070000
N       -3.44130000      -3.13360000       0.01770000
H        0.83360000       1.94270000       0.00540000
H       -0.71950000       1.75220000      -0.86280000
H       -0.70420000       1.74300000       0.89860000
H       -0.49330000      -2.45460000      -0.88880000
H       -0.47650000      -2.46460000       0.87570000
