25
Properties=species:S:1:pos:R:3 gdb_118076=T pbc="F F F"
C       -0.00490000       1.38230000      -0.03490000
O        0.03190000      -0.02280000      -0.04370000
C        0.64890000      -0.56390000       1.10760000
C        0.64920000      -2.09350000       1.00160000
C        1.39520000      -2.51790000      -0.27520000
C        1.21880000      -2.74240000       2.28860000
C        0.46300000      -2.32680000       3.56230000
C        1.23520000      -4.27210000       2.18130000
O        1.85020000      -4.79560000       3.35270000
H        1.00640000       1.81940000      -0.00690000
H       -0.50240000       1.70440000      -0.95320000
H       -0.56740000       1.77240000       0.82890000
H        1.68620000      -0.19150000       1.19540000
H        0.10640000      -0.22890000       2.00350000
H       -0.40310000      -2.39810000       0.90400000
H        2.47660000      -2.37200000      -0.16250000
H        1.22290000      -3.56740000      -0.52630000
H        1.05840000      -1.91190000      -1.11840000
H        2.26830000      -2.42940000       2.39250000
H        0.79960000      -2.93260000       4.40550000
H        0.62540000      -1.27670000       3.81730000
H       -0.61670000      -2.48070000       3.44290000
H        0.20040000      -4.64180000       2.07790000
H        1.79040000      -4.58780000       1.28880000
H        1.84530000      -5.75460000       3.28890000
