14
Properties=species:S:1:pos:R:3 gdb_54649=T pbc="F F F"
N       -0.05650000       1.30300000       0.17260000
C        0.04160000      -0.05230000       0.03040000
N        1.15950000      -0.66330000      -0.06690000
C       -1.28680000      -0.72810000       0.02210000
N       -2.42040000      -0.15010000       0.01320000
C       -3.41040000      -1.21780000      -0.01800000
C       -2.60370000      -2.51200000      -0.02840000
O       -2.92200000      -3.65500000      -0.05350000
O       -1.26570000      -2.10150000      -0.00010000
H        0.77530000       1.83560000      -0.02290000
H       -0.95000000       1.73020000      -0.00800000
H        1.01190000      -1.66890000      -0.11660000
H       -4.07000000      -1.18160000       0.85570000
H       -4.04780000      -1.15250000      -0.90630000
