19
Properties=species:S:1:pos:R:3 gdb_53670=T pbc="F F F"
C       -0.86260000       0.76060000       0.69220000
C       -0.41130000      -0.57600000       0.33460000
C       -0.04440000      -1.68530000       0.04350000
C        0.43380000      -3.01640000      -0.32790000
O       -0.56820000      -3.89600000      -0.83290000
C       -1.43930000      -4.42630000       0.12370000
C       -2.69350000      -3.65710000       0.49500000
C       -2.76200000      -4.83460000      -0.45430000
O       -2.98320000      -4.62590000      -1.81380000
H       -0.50850000       1.50830000      -0.02570000
H       -1.95680000       0.81220000       0.71200000
H       -0.50010000       1.05090000       1.68430000
H        1.17250000      -2.93530000      -1.13270000
H        0.93750000      -3.48720000       0.52980000
H       -0.95080000      -5.04840000       0.87370000
H       -3.08270000      -3.76080000       1.50250000
H       -2.80500000      -2.67610000       0.04970000
H       -3.21700000      -5.75620000      -0.10350000
H       -2.17160000      -4.23570000      -2.16410000
