21
Properties=species:S:1:pos:R:3 gdb_103612=T pbc="F F F"
C        0.16550000       1.52680000       0.09090000
C        0.05960000      -0.00050000      -0.00240000
C       -1.37680000      -0.51140000       0.02590000
O       -2.17440000       0.00950000      -1.03710000
C       -1.62210000      -2.04530000       0.09660000
C       -2.66870000      -1.85800000       1.24430000
C       -2.61460000      -2.73270000       2.48950000
C       -2.16860000      -0.41000000       1.36360000
O       -2.27260000       0.44280000       2.20110000
H        1.21210000       1.84340000       0.11120000
H       -0.29810000       2.01080000      -0.77580000
H       -0.32270000       1.89730000       0.99660000
H        0.53030000      -0.35850000      -0.92690000
H        0.60700000      -0.45900000       0.83040000
H       -2.26670000       0.95870000      -0.89710000
H       -1.99160000      -2.47870000      -0.83290000
H       -0.73360000      -2.58830000       0.43000000
H       -3.68390000      -1.84370000       0.82950000
H       -1.60260000      -2.76370000       2.90710000
H       -3.28230000      -2.34270000       3.26350000
H       -2.91760000      -3.75990000       2.26360000
