20
Properties=species:S:1:pos:R:3 gdb_78773=T pbc="F F F"
C       -0.04930000       1.60200000      -0.01980000
C        0.07280000       0.07960000      -0.00200000
C       -1.30470000      -0.56840000       0.19650000
C        0.83430000      -0.63130000      -1.11860000
C        2.28860000      -0.70710000      -0.79060000
C        2.52520000      -0.11940000       0.59140000
O        2.80060000       1.24470000       0.80970000
C        1.11550000      -0.63490000       0.90770000
N        1.32730000      -1.71850000      -0.20770000
H        0.90770000       2.08710000      -0.20580000
H       -0.76120000       1.90880000      -0.79520000
H       -0.43410000       1.96990000       0.93830000
H       -1.98430000      -0.28870000      -0.61640000
H       -1.23430000      -1.65920000       0.22210000
H       -1.75580000      -0.22860000       1.13530000
H        0.47250000      -0.86760000      -2.11490000
H        3.02970000      -1.00780000      -1.52360000
H        3.25280000      -0.75460000       1.11420000
H        3.75270000       1.37410000       0.76790000
H        0.84800000      -0.94540000       1.91700000
