14
Properties=species:S:1:pos:R:3 gdb_46175=T pbc="F F F"
O        0.00350000       0.02500000      -0.17790000
C       -0.03950000       1.19660000      -0.00870000
C       -1.11100000       2.24290000       0.29510000
N       -0.03480000       3.22210000       0.58800000
C        1.05760000       2.35480000       0.02830000
C        2.18330000       2.13420000       0.92090000
C        3.09480000       1.90730000       1.66940000
C        1.46740000       2.70550000      -1.32660000
C        1.74550000       3.00660000      -2.45700000
H       -1.72930000       2.45280000      -0.58850000
H       -1.76730000       2.02200000       1.14290000
H       -0.11930000       4.10280000       0.09350000
H        3.90550000       1.71950000       2.32950000
H        2.01410000       3.26790000      -3.45110000
