20
Properties=species:S:1:pos:R:3 gdb_114793=T pbc="F F F"
C        0.04740000       1.49290000      -0.17600000
C        0.02510000      -0.02790000       0.00830000
C       -1.38810000      -0.59220000       0.08070000
C       -2.28560000      -0.54250000      -1.20270000
C       -2.65650000      -2.02940000      -0.99370000
O       -2.18950000      -2.91680000      -2.03550000
C       -0.95370000      -3.30150000      -1.62380000
N       -0.51190000      -2.93970000      -0.49050000
C       -1.58220000      -2.14020000       0.12760000
H        1.07320000       1.86900000      -0.23650000
H       -0.46880000       1.79200000      -1.09500000
H       -0.44540000       2.00330000       0.65940000
H        0.56470000      -0.51510000      -0.81170000
H        0.56500000      -0.29880000       0.92410000
H       -1.91880000      -0.13900000       0.92640000
H       -3.11720000       0.16520000      -1.19010000
H       -1.71910000      -0.39860000      -2.12690000
H       -3.70080000      -2.26370000      -0.78880000
H       -0.42290000      -3.92780000      -2.33280000
H       -1.84370000      -2.56380000       1.10100000
