18
Properties=species:S:1:pos:R:3 gdb_81622=T pbc="F F F"
C       -0.03820000       1.67110000       0.16330000
C       -0.02470000       0.15990000       0.02660000
C        1.18370000      -0.52670000      -0.67780000
O        2.02620000      -0.17830000       0.48630000
C        0.76590000      -0.68830000       1.06740000
C        0.86820000      -1.86650000       0.05270000
N       -0.25260000      -2.69330000      -0.29220000
C       -0.16460000      -4.05330000      -0.39720000
O        0.83650000      -4.70940000      -0.21870000
H        0.95290000       2.03900000       0.43470000
H       -0.34160000       2.14330000      -0.77710000
H       -0.75120000       1.98490000       0.93310000
H       -1.01500000      -0.22390000      -0.24600000
H        1.60090000      -0.35700000      -1.67110000
H        0.68500000      -0.71130000       2.15490000
H        1.73880000      -2.50010000       0.20240000
H       -1.15140000      -2.27440000      -0.46840000
H       -1.14050000      -4.50080000      -0.67250000
