18
Properties=species:S:1:pos:R:3 gdb_40024=T pbc="F F F"
C       -0.64370000       1.24350000       0.11960000
O        0.77480000       1.20050000      -0.00990000
C        0.06380000      -0.04910000       0.00940000
C        0.33160000      -0.90150000       1.25180000
N       -0.30380000      -2.21690000       1.27770000
C       -1.68730000      -2.34770000       0.85160000
C       -0.57220000      -2.85100000      -0.02250000
C       -0.23400000      -2.11750000      -1.26320000
C        0.05410000      -0.81270000      -1.25730000
H       -1.01940000       1.56250000       1.09240000
H       -1.18030000       1.64370000      -0.74020000
H        1.41380000      -1.06620000       1.30600000
H        0.04090000      -0.35730000       2.15540000
H       -2.28580000      -3.05120000       1.42480000
H       -2.22150000      -1.46780000       0.49930000
H       -0.38580000      -3.92250000      -0.04050000
H       -0.21910000      -2.68650000      -2.18800000
H        0.30240000      -0.26950000      -2.16350000
