19
Properties=species:S:1:pos:R:3 gdb_17675=T pbc="F F F"
C        0.07460000       1.52820000      -0.05540000
C        0.07560000       0.01690000       0.01370000
C        1.35880000      -0.76460000      -0.18930000
C        0.71840000      -0.71670000       1.17220000
O        1.40790000       0.03960000       2.13920000
C        0.07210000      -1.96060000       1.71520000
C        0.73090000      -2.74800000       2.78330000
N       -0.49960000      -1.97940000       3.07060000
H        0.98320000       1.94500000       0.38840000
H        0.02550000       1.87120000      -1.09410000
H       -0.78790000       1.95420000       0.47100000
H       -0.82480000      -0.45180000      -0.37640000
H        1.32820000      -1.69540000      -0.74560000
H        2.27420000      -0.19380000      -0.30210000
H        0.80680000       0.70930000       2.48270000
H       -0.53260000      -2.49090000       0.98190000
H        0.61600000      -3.82750000       2.81600000
H        1.66950000      -2.36670000       3.17370000
H       -0.22240000      -1.12400000       3.54870000
