17
Properties=species:S:1:pos:R:3 gdb_88354=T pbc="F F F"
C       -1.08550000       0.69900000       0.79290000
C       -0.06640000      -0.23390000       0.18390000
N        1.04820000       0.36750000      -0.56890000
C        1.33730000      -0.38510000       0.65070000
C        1.92290000       0.42660000       1.81360000
C        1.62480000      -0.18760000       3.10910000
C        1.35680000      -0.70540000       4.15800000
C        3.37610000       0.58650000       1.62540000
N        4.51280000       0.69930000       1.45630000
H       -0.62870000       1.63270000       1.12840000
H       -1.84970000       0.95720000       0.05280000
H       -1.58350000       0.22690000       1.64570000
H       -0.49510000      -1.14770000      -0.22670000
H        1.28550000      -0.17010000      -1.39710000
H        1.78380000      -1.37270000       0.56160000
H        1.48600000       1.43100000       1.77480000
H        1.12750000      -1.15730000       5.09170000
