21
Properties=species:S:1:pos:R:3 gdb_120280=T pbc="F F F"
O       -0.01900000       1.47030000       0.15370000
C        0.03090000       0.06120000      -0.03010000
C       -1.38300000      -0.48130000       0.14760000
C       -1.45410000      -1.99900000       0.01220000
C       -2.81880000      -2.69530000       0.12310000
C       -3.72280000      -2.29230000      -1.00300000
C       -2.65340000      -3.32190000      -1.26750000
C       -1.28400000      -2.66420000      -1.41630000
O       -1.03300000      -1.85360000      -2.54350000
H        0.85390000       1.82640000      -0.03460000
H        0.39730000      -0.20090000      -1.03250000
H        0.70380000      -0.41010000       0.70630000
H       -1.75360000      -0.18250000       1.13610000
H       -2.03000000       0.01370000      -0.58540000
H       -0.73670000      -2.45580000       0.70290000
H       -3.20360000      -3.16390000       1.02050000
H       -4.73050000      -2.69240000      -0.95990000
H       -3.67940000      -1.29230000      -1.42900000
H       -2.90750000      -4.32060000      -1.60190000
H       -0.47550000      -3.39890000      -1.40320000
H       -1.83480000      -1.35840000      -2.74020000
