19
Properties=species:S:1:pos:R:3 gdb_89398=T pbc="F F F"
C       -0.02660000       1.40450000      -0.13730000
N        0.00210000      -0.03190000      -0.01330000
C       -1.20830000      -0.82980000       0.08500000
C       -0.70610000      -2.27370000       0.08670000
C       -1.49820000      -3.33270000       0.80410000
N       -0.00360000      -2.57360000      -1.17460000
C        0.77470000      -2.20580000       0.04430000
C        1.17240000      -0.75010000       0.02340000
O        2.29490000      -0.28860000       0.04620000
H        1.00750000       1.75190000      -0.16910000
H       -0.54260000       1.71620000      -1.05420000
H       -0.53500000       1.86770000       0.71830000
H       -1.75570000      -0.59850000       1.01100000
H       -1.88010000      -0.64230000      -0.76290000
H       -2.47520000      -3.48330000       0.33050000
H       -0.96860000      -4.29070000       0.79280000
H       -1.67270000      -3.05740000       1.84950000
H        0.05100000      -3.58550000      -1.28540000
H        1.43660000      -2.92810000       0.50580000
