27
Properties=species:S:1:pos:R:3 gdb_122010=T pbc="F F F"
C        0.01250000       1.59810000       0.12180000
C        0.01430000       0.06910000       0.03970000
C        0.69440000      -0.46400000      -1.22550000
C        0.69780000      -1.99290000      -1.31860000
C        1.43590000      -2.53290000      -2.55020000
O        2.79100000      -2.07790000      -2.58660000
C        1.35700000      -4.06090000      -2.65670000
C        2.01630000      -4.62450000      -3.91960000
C        1.98470000      -6.15350000      -3.98360000
H        1.03370000       1.99520000       0.11590000
H       -0.51620000       2.03940000      -0.73050000
H       -0.47680000       1.95030000       1.03540000
H        0.51850000      -0.34410000       0.92380000
H       -1.01890000      -0.30130000       0.08260000
H        0.19040000      -0.05040000      -2.11040000
H        1.72870000      -0.10420000      -1.27340000
H        1.16340000      -2.41850000      -0.41580000
H       -0.33390000      -2.36900000      -1.33110000
H        0.98630000      -2.09340000      -3.45140000
H        3.23570000      -2.43770000      -1.81020000
H        1.82990000      -4.50040000      -1.76430000
H        0.30240000      -4.36520000      -2.61880000
H        1.51150000      -4.20940000      -4.80210000
H        3.04980000      -4.26560000      -3.96700000
H        2.51180000      -6.59770000      -3.13140000
H        0.95660000      -6.53270000      -3.96670000
H        2.46030000      -6.52430000      -4.89700000
