21
Properties=species:S:1:pos:R:3 gdb_94813=T pbc="F F F"
C       -0.22300000       1.48000000      -0.06970000
C        0.08990000       0.00130000       0.06070000
O        0.91570000      -0.39630000      -1.03800000
C        1.38970000      -1.69940000      -0.74480000
C        1.45610000      -1.78570000       0.78500000
C        1.43270000      -3.05600000       1.51520000
O        2.64470000      -2.30320000       1.38140000
C        0.87440000      -0.46530000       1.31000000
C        1.98660000       0.49310000       1.75010000
H        0.69080000       2.07860000      -0.07360000
H       -0.75660000       1.66640000      -1.00560000
H       -0.85660000       1.81180000       0.75870000
H       -0.85640000      -0.56850000       0.01960000
H        0.70740000      -2.46250000      -1.15250000
H        2.37600000      -1.83360000      -1.19750000
H        1.01610000      -3.09750000       2.52150000
H        1.40740000      -3.99860000       0.96770000
H        0.19210000      -0.64600000       2.14690000
H        2.62230000       0.77060000       0.90380000
H        1.57250000       1.40750000       2.18410000
H        2.62010000       0.00970000       2.49720000
