20
Properties=species:S:1:pos:R:3 gdb_57632=T pbc="F F F"
C       -0.27850000       1.48190000      -0.13640000
C       -0.00790000      -0.01510000       0.10130000
C        0.96910000      -0.23020000       1.27380000
O       -1.20600000      -0.78180000       0.26830000
C       -2.06110000      -0.41400000       1.31380000
C       -3.22590000       0.50530000       1.04280000
C       -3.44060000      -0.98220000       1.22980000
C        0.60270000      -0.58070000      -1.12330000
N        1.11260000      -0.99110000      -2.07470000
H        0.65810000       1.99880000      -0.36050000
H       -0.96200000       1.61920000      -0.97670000
H       -0.71880000       1.93050000       0.75670000
H        0.58530000       0.24130000       2.18220000
H        1.10710000      -1.29820000       1.45520000
H        1.94000000       0.21660000       1.04580000
H       -1.59380000      -0.37020000       2.29520000
H       -3.54350000       1.18710000       1.82460000
H       -3.32530000       0.88910000       0.03450000
H       -3.66470000      -1.56240000       0.34220000
H       -3.90730000      -1.33980000       2.14020000
