15
Properties=species:S:1:pos:R:3 gdb_25889=T pbc="F F F"
N       -0.03720000       1.33210000      -0.06420000
C        0.02690000      -0.04780000      -0.00050000
O        1.09140000      -0.63580000       0.08000000
C       -1.27050000      -0.75120000       0.00180000
C       -2.53470000      -0.22990000       0.17750000
N       -3.42480000      -1.27690000       0.12120000
C       -2.74030000      -2.44580000      -0.08460000
O       -3.47320000      -3.58240000      -0.17250000
C       -1.40200000      -2.16940000      -0.16140000
H        0.85080000       1.78310000      -0.22600000
H       -0.83120000       1.75700000      -0.51540000
H       -2.87380000       0.77180000       0.38330000
H       -4.42240000      -1.22170000       0.23620000
H       -2.87030000      -4.32230000      -0.29300000
H       -0.58950000      -2.86020000      -0.31610000
