19
Properties=species:S:1:pos:R:3 gdb_92768=T pbc="F F F"
C       -0.14980000       1.62640000      -0.25920000
C        0.10970000       0.17460000       0.10720000
C        0.74450000      -0.68530000      -1.02240000
N        2.05660000      -1.09650000      -0.50970000
C        2.15290000      -0.61270000       0.66130000
O        1.10980000       0.11270000       1.16210000
C        3.30520000      -0.77180000       1.56590000
C        3.70680000       0.36330000       2.44840000
N        3.08580000      -0.82970000       3.02530000
H        0.75870000       2.09060000      -0.65610000
H       -0.92830000       1.68430000      -1.02700000
H       -0.48240000       2.19950000       0.61080000
H       -0.79840000      -0.28400000       0.51120000
H        0.14400000      -1.56900000      -1.26390000
H        0.86410000      -0.11240000      -1.94980000
H        4.05950000      -1.44950000       1.18340000
H        4.75950000       0.49510000       2.68050000
H        3.12360000       1.27660000       2.38460000
H        2.10380000      -0.63700000       3.21060000
