14
Properties=species:S:1:pos:R:3 gdb_29074=T pbc="F F F"
O       -0.04260000       1.31300000       0.00800000
C        0.01660000      -0.01950000       0.00240000
N        1.19830000      -0.54600000      -0.00690000
C        1.54990000      -1.85600000      -0.01480000
C        0.78240000      -2.98420000      -0.01730000
C       -0.63650000      -3.05700000      -0.01090000
C       -1.55370000      -2.05160000       0.00040000
C       -1.37750000      -0.60950000       0.00930000
O       -2.33190000       0.15100000       0.02060000
H        0.87910000       1.61590000       0.00330000
H        2.62930000      -1.99630000      -0.02050000
H        1.31830000      -3.92820000      -0.02510000
H       -1.04450000      -4.06540000      -0.01530000
H       -2.60580000      -2.32210000       0.00410000
