16
Properties=species:S:1:pos:R:3 gdb_4965=T pbc="F F F"
C       -0.00260000       1.52670000      -0.00250000
C        0.00120000       0.02230000      -0.00760000
C       -0.05290000      -0.71510000      -1.18710000
C       -0.03130000      -2.10540000      -1.14820000
N        0.03790000      -2.79590000      -0.00750000
C        0.08410000      -2.09950000       1.12470000
C        0.07220000      -0.69990000       1.19740000
N        0.19250000      -0.04750000       2.42630000
H        0.86740000       1.92340000       0.53440000
H        0.01230000       1.92480000      -1.01960000
H       -0.89570000       1.93090000       0.49410000
H       -0.10860000      -0.20010000      -2.14150000
H       -0.07130000      -2.68540000      -2.06630000
H        0.13810000      -2.67680000       2.04810000
H       -0.01830000      -0.62930000       3.22510000
H       -0.28240000       0.84140000       2.48960000
