17
Properties=species:S:1:pos:R:3 gdb_17197=T pbc="F F F"
O       -0.02750000       1.44980000      -0.05680000
C        0.01590000       0.04790000       0.00850000
C       -0.02090000      -0.66340000       1.40820000
C       -1.49310000      -0.14870000       1.53630000
C       -1.36850000      -0.65000000       0.05910000
C       -0.60870000      -1.85470000       0.63920000
C       -0.05220000      -3.10140000       0.09820000
N       -1.16140000      -3.10760000       1.10260000
H        0.86060000       1.78430000       0.10120000
H        0.73350000      -0.36930000      -0.70980000
H        0.75870000      -0.67930000       2.17270000
H       -2.15360000      -0.72790000       2.18370000
H       -1.61500000       0.92500000       1.66710000
H       -2.13430000      -0.65270000      -0.71570000
H       -0.33830000      -3.46170000      -0.88650000
H        0.93670000      -3.41690000       0.42280000
H       -0.79100000      -3.34770000       2.01970000
