19
Properties=species:S:1:pos:R:3 gdb_110572=T pbc="F F F"
O       -0.06480000       1.46020000      -0.31280000
C        0.02810000       0.10440000       0.11010000
C       -1.36150000      -0.49300000       0.04250000
C       -1.96740000      -0.84950000      -1.33350000
C       -1.17820000      -2.19940000      -1.43890000
C       -2.44680000      -3.03290000      -1.72100000
C       -2.87700000      -1.96930000      -0.69240000
O       -4.08960000      -1.80550000      -0.05170000
C       -1.52600000      -2.02990000       0.08330000
H        0.80800000       1.85720000      -0.24160000
H        0.72220000      -0.46320000      -0.52980000
H        0.40750000       0.03630000       1.14320000
H       -2.03920000       0.05700000       0.70360000
H       -2.23060000      -0.19320000      -2.16440000
H       -0.18570000      -2.33060000      -1.86140000
H       -2.87120000      -2.95350000      -2.72810000
H       -2.44030000      -4.07340000      -1.38060000
H       -4.75240000      -1.56610000      -0.70850000
H       -1.28300000      -2.73680000       0.87900000
