23
Properties=species:S:1:pos:R:3 gdb_71288=T pbc="F F F"
C       -0.01050000       1.47020000       0.03360000
C        0.01240000      -0.05210000      -0.00530000
C        0.21060000      -0.64510000      -1.45020000
C       -1.11350000      -1.39740000      -1.31230000
C       -1.25880000      -2.18430000      -0.02460000
C       -0.18760000      -2.91440000       0.77080000
C        1.14380000      -2.15240000       0.90510000
C        0.94970000      -0.63670000       1.06320000
C       -1.39980000      -0.69400000       0.01820000
H        0.97660000       1.88590000      -0.20010000
H       -0.72660000       1.87400000      -0.69040000
H       -0.29960000       1.83440000       1.02690000
H        0.13490000       0.14760000      -2.20010000
H        1.11560000      -1.22280000      -1.65920000
H       -1.80070000      -1.57710000      -2.13160000
H       -2.21980000      -2.69590000       0.00100000
H       -0.60090000      -3.08900000       1.77400000
H       -0.00430000      -3.90780000       0.34280000
H        1.70570000      -2.54830000       1.75810000
H        1.76570000      -2.34320000       0.02440000
H        1.92670000      -0.13800000       1.01870000
H        0.53050000      -0.41080000       2.05410000
H       -2.29790000      -0.18530000       0.35100000
