19
Properties=species:S:1:pos:R:3 gdb_40422=T pbc="F F F"
C        0.55060000       1.41860000       0.07260000
O        1.04230000       0.17670000      -0.43770000
C       -0.29630000       0.21570000       0.06130000
C       -0.58310000      -0.57610000       1.29560000
C        0.54450000      -1.02060000       2.20490000
C       -0.23950000      -2.05660000       1.43870000
C       -1.41650000      -2.74410000       2.12930000
C       -2.35530000      -1.59890000       2.45070000
C       -1.91170000      -0.43510000       1.97070000
H        0.99680000       1.74220000       1.01150000
H        0.39830000       2.19930000      -0.67110000
H       -1.05760000       0.14630000      -0.71840000
H        1.55140000      -0.83280000       1.84840000
H        0.39910000      -0.92770000       3.27650000
H        0.27730000      -2.57030000       0.63660000
H       -1.89720000      -3.48160000       1.47230000
H       -1.11090000      -3.29100000       3.03100000
H       -3.26240000      -1.73170000       3.02960000
H       -2.41340000       0.52110000       2.07260000
