23
Properties=species:S:1:pos:R:3 gdb_76487=T pbc="F F F"
C        0.20330000       0.60580000      -2.36420000
C        0.18320000      -0.42820000      -1.25830000
C        1.30920000      -0.58190000      -0.24850000
C        2.55980000       0.26960000      -0.27260000
C       -0.03200000      -0.03730000       0.17740000
C       -0.29360000       1.35590000       0.77230000
C       -0.84590000       0.63700000       2.03790000
O       -1.97150000       1.15250000       2.70070000
C       -0.96180000      -0.67860000       1.21590000
H        0.62590000       1.55780000      -2.03140000
H        0.79270000       0.26300000      -3.22210000
H       -0.81200000       0.81000000      -2.72310000
H       -0.28880000      -1.36470000      -1.55120000
H        1.49480000      -1.60930000       0.06090000
H        2.35470000       1.30100000      -0.57120000
H        3.02930000       0.30360000       0.71720000
H        3.29860000      -0.13450000      -0.97390000
H        0.54840000       2.03930000       0.90960000
H       -1.09230000       1.88990000       0.24160000
H       -0.06980000       0.55060000       2.80340000
H       -2.68260000       1.23450000       2.05620000
H       -1.98140000      -0.81380000       0.83150000
H       -0.64340000      -1.60880000       1.69510000
