18
Properties=species:S:1:pos:R:3 gdb_91997=T pbc="F F F"
O       -0.03230000       1.12430000       1.29750000
C       -0.03060000       0.13400000       0.28540000
C        0.88150000      -1.02820000       0.72240000
N        0.06410000      -2.07550000       1.36350000
C       -0.82940000      -1.56910000       2.42270000
C       -1.34200000      -1.77940000       1.04600000
C       -1.41920000      -0.57040000       0.10840000
C       -2.54200000       0.32730000       0.33160000
C       -3.43520000       1.10880000       0.53090000
H       -0.81360000       1.67730000       1.16440000
H        0.29320000       0.57060000      -0.66950000
H        1.36250000      -1.47620000      -0.15370000
H        1.66270000      -0.67170000       1.39890000
H       -1.06390000      -2.30060000       3.19060000
H       -0.69360000      -0.55020000       2.76790000
H       -1.98750000      -2.62280000       0.81930000
H       -1.47060000      -0.94940000      -0.92080000
H       -4.24780000       1.77160000       0.70030000
