14
Properties=species:S:1:pos:R:3 gdb_132189=T pbc="F F F"
C       -0.01970000       1.51750000       0.07890000
C       -0.00100000       0.02510000      -0.03700000
C       -0.02230000      -0.68430000      -1.18250000
C       -0.00100000      -2.15510000      -1.18530000
O       -0.01910000      -2.81600000      -2.20030000
N        0.04340000      -2.77920000       0.09270000
C        0.06100000      -2.04010000       1.11850000
F        0.10230000      -2.56380000       2.33660000
N        0.04230000      -0.67990000       1.15880000
H        0.87340000       1.88370000       0.59880000
H       -0.05230000       1.97390000      -0.91080000
H       -0.89470000       1.85790000       0.64510000
H       -0.05610000      -0.18380000      -2.14130000
H        0.06030000      -0.21020000       2.05050000
