17
Properties=species:S:1:pos:R:3 gdb_29803=T pbc="F F F"
C        0.01680000       1.42550000       0.03370000
N       -0.02370000      -0.02090000       0.02020000
C       -0.02210000      -0.79720000      -1.11340000
C       -0.01080000      -2.13040000      -0.73910000
N       -0.09000000      -3.24680000      -1.59120000
C        0.00100000      -2.16090000       0.67500000
C       -0.00330000      -0.84520000       1.12660000
C        0.00620000      -0.34820000       2.44360000
C        0.01480000       0.07470000       3.57380000
H        0.98430000       1.80110000      -0.31880000
H       -0.77200000       1.83430000      -0.60530000
H       -0.14160000       1.77200000       1.05530000
H       -0.03740000      -0.34370000      -2.09190000
H        0.28740000      -3.06220000      -2.51190000
H        0.37790000      -4.05630000      -1.20430000
H       -0.00230000      -3.03500000       1.30750000
H        0.02170000       0.43660000       4.57160000
