21
Properties=species:S:1:pos:R:3 gdb_40899=T pbc="F F F"
C        0.12120000       1.60410000      -0.06740000
C        1.63890000       1.54750000       0.28270000
C        1.44630000       0.07490000       0.67410000
C        0.03930000       0.05390000       0.06110000
C        2.41340000      -1.08930000       0.72920000
C        3.90210000      -0.80060000       0.84360000
C        3.98500000       0.20540000       2.01510000
O        2.78520000       0.07020000       2.78370000
C        1.80280000      -0.54900000       1.99410000
H       -0.46400000       2.12100000       0.69640000
H       -0.13680000       2.02280000      -1.04230000
H        2.28820000       1.69040000      -0.58750000
H        1.97340000       2.21210000       1.08310000
H       -0.76380000      -0.34660000       0.68730000
H        0.00380000      -0.45320000      -0.90890000
H        2.09830000      -2.03620000       0.30270000
H        4.43240000      -1.72910000       1.07930000
H        4.34570000      -0.38690000      -0.06750000
H        4.83290000       0.02110000       2.68200000
H        4.07070000       1.23130000       1.63620000
H        1.06120000      -1.06790000       2.59310000
