16
Properties=species:S:1:pos:R:3 gdb_33309=T pbc="F F F"
N        0.11800000      -3.70200000      -0.22470000
C        0.07240000      -2.54180000      -0.15580000
C        0.01950000      -1.18360000      -0.07480000
C       -0.04570000       0.02590000      -0.00440000
C       -0.05430000       1.43050000       0.08180000
C       -1.13760000       2.22150000      -0.01280000
C       -0.79670000       3.67410000       0.17360000
C        0.75000000       3.69560000       0.07100000
C        1.20640000       2.24320000       0.35500000
H       -2.14730000       1.85950000      -0.16720000
H       -1.28200000       4.31940000      -0.56670000
H       -1.15150000       4.01900000       1.15590000
H        1.04110000       3.97540000      -0.94580000
H        1.20810000       4.41750000       0.75040000
H        1.52030000       2.10190000       1.39690000
H        2.04660000       1.93030000      -0.27140000
