21
Properties=species:S:1:pos:R:3 gdb_119577=T pbc="F F F"
C        0.02150000       1.30690000       0.13400000
O        0.12770000      -0.09610000       0.08010000
C        0.61390000      -0.56800000      -1.16930000
C        0.58420000      -2.05920000      -1.12140000
C        1.71800000      -2.90690000      -0.61120000
C        1.21420000      -3.13940000      -2.00750000
C       -0.07100000      -3.97780000      -1.94720000
C       -0.72050000      -2.86340000      -1.07400000
O       -1.17850000      -3.29600000       0.18760000
H        0.99900000       1.79570000      -0.00310000
H       -0.66520000       1.69550000      -0.63500000
H       -0.36790000       1.56980000       1.12070000
H       -0.02970000      -0.18750000      -1.98220000
H        1.63360000      -0.19090000      -1.35730000
H        2.66940000      -2.39020000      -0.53200000
H        1.53610000      -3.64530000       0.16480000
H        1.84430000      -3.00870000      -2.87920000
H       -0.57220000      -4.10700000      -2.90850000
H        0.02310000      -4.95030000      -1.45600000
H       -1.51670000      -2.34020000      -1.62440000
H       -1.23580000      -2.51130000       0.74500000
