18
Properties=species:S:1:pos:R:3 gdb_64528=T pbc="F F F"
C       -0.14160000       1.60970000       0.00970000
C       -0.04350000       0.09320000       0.01470000
C       -1.36030000      -0.58000000      -0.29870000
O       -2.38030000       0.02440000      -0.52940000
C        1.18970000      -0.57670000      -0.64890000
C        2.16110000      -0.23990000       0.52160000
C        2.55070000      -1.71170000       0.59460000
N        1.07230000      -1.83800000       0.25050000
C        0.77570000      -0.59760000       1.13780000
H        0.82040000       2.07650000       0.23700000
H       -0.48040000       1.96910000      -0.96580000
H       -0.87500000       1.94930000       0.74620000
H       -1.32930000      -1.68730000      -0.30340000
H        1.42630000      -0.67470000      -1.71060000
H        2.75910000       0.66360000       0.67080000
H        3.21310000      -2.11100000      -0.18020000
H        2.80690000      -2.13150000       1.57270000
H        0.52180000      -0.72050000       2.19290000
