19
Properties=species:S:1:pos:R:3 gdb_91634=T pbc="F F F"
C       -0.20630000       1.54910000      -0.06460000
C        0.03820000       0.05230000       0.02170000
O        0.86190000      -0.40290000      -1.08060000
C        1.88690000      -1.18220000      -0.46210000
O        1.26130000      -1.75080000       0.67530000
C        0.83760000      -0.49460000       1.23760000
C        2.15070000       0.28020000       1.35610000
C        3.40820000      -0.53580000       1.51630000
C        2.90770000      -0.21170000       0.13310000
H        0.73040000       2.11100000      -0.05000000
H       -0.72740000       1.78730000      -0.99600000
H       -0.83460000       1.88470000       0.76790000
H       -0.92010000      -0.48200000      -0.02990000
H        2.23100000      -1.95620000      -1.14780000
H        0.25910000      -0.66620000       2.14500000
H        2.13620000       1.32260000       1.64500000
H        4.28460000       0.01090000       1.84650000
H        3.33660000      -1.55490000       1.87710000
H        3.44530000       0.45360000      -0.52980000
