20
Properties=species:S:1:pos:R:3 gdb_113362=T pbc="F F F"
C        0.20610000       1.47300000      -0.07530000
C        0.30070000      -0.04770000      -0.16530000
N        0.70160000      -0.59700000       1.13210000
C       -0.30790000      -1.11660000       2.02070000
C        0.64840000      -2.05910000       1.34150000
C        0.15190000      -3.04380000       0.29700000
O        1.13280000      -3.32300000      -0.68310000
C        1.84020000      -2.52160000       2.11180000
O        2.39250000      -3.58230000       1.92590000
H        1.16160000       1.90120000       0.23920000
H       -0.06400000       1.89600000      -1.04760000
H       -0.55620000       1.77670000       0.64970000
H       -0.66060000      -0.45600000      -0.51460000
H        1.05970000      -0.34730000      -0.89450000
H       -0.20210000      -0.88030000       3.07720000
H       -1.33810000      -1.16790000       1.66590000
H       -0.17140000      -3.95860000       0.81610000
H       -0.71840000      -2.64490000      -0.22940000
H        1.85090000      -3.76860000      -0.21590000
H        2.21080000      -1.79460000       2.86500000
