21
Properties=species:S:1:pos:R:3 gdb_67462=T pbc="F F F"
C       -0.00490000       1.53120000      -0.02240000
C        0.01280000       0.03090000      -0.00990000
C        0.49310000      -0.98040000      -1.05900000
C        1.29740000      -1.74180000      -0.00150000
C        0.64140000      -0.84730000       1.10300000
C       -0.40320000      -1.57460000       1.94370000
O       -1.15880000      -2.47130000       1.14410000
C       -1.82470000      -1.85080000       0.05700000
C       -0.97770000      -0.85120000      -0.71120000
H        0.99420000       1.94630000       0.15720000
H       -0.35620000       1.91190000      -0.98760000
H       -0.67120000       1.93340000       0.75110000
H        0.82980000      -0.78120000      -2.07090000
H        1.14230000      -2.82000000       0.07830000
H        2.36690000      -1.53630000      -0.09480000
H        1.35740000      -0.31770000       1.73640000
H        0.06530000      -2.19700000       2.71300000
H       -1.06300000      -0.84750000       2.44900000
H       -2.15800000      -2.66950000      -0.59040000
H       -2.72750000      -1.32650000       0.41990000
H       -1.54400000      -0.34030000      -1.48820000
