19
Properties=species:S:1:pos:R:3 gdb_39074=T pbc="F F F"
C        0.04590000       1.48750000       0.41730000
C        1.14970000       2.30620000      -0.20930000
C        1.90050000       2.09570000      -1.29420000
C        1.92060000       0.96180000      -2.29190000
C        1.28660000      -0.36290000      -1.83790000
O       -0.05100000      -0.14570000      -1.38710000
C       -0.00800000       0.00000000       0.03290000
C        1.23790000      -0.75550000       0.43960000
C        1.98310000      -0.96440000      -0.63720000
H        0.11760000       1.56630000       1.51110000
H       -0.91930000       1.94490000       0.15410000
H        1.32250000       3.24820000       0.31010000
H        2.60500000       2.88860000      -1.54320000
H        1.40580000       1.29300000      -3.20580000
H        2.95920000       0.76960000      -2.59540000
H        1.24290000      -1.04910000      -2.69330000
H       -0.92630000      -0.44090000       0.44140000
H        1.47200000      -1.01000000       1.46540000
H        2.96040000      -1.42730000      -0.68550000
