21
Properties=species:S:1:pos:R:3 gdb_65509=T pbc="F F F"
C        0.18530000       1.64900000      -0.07450000
C        0.08710000       0.12600000      -0.07410000
C        1.19000000      -0.63350000      -0.91460000
C        1.64770000      -1.32110000       0.37290000
N        2.07070000      -0.23500000       1.29490000
C        0.63780000      -0.59450000       1.17940000
N       -1.21090000      -0.48020000      -0.38290000
C       -2.44390000       0.08570000       0.14620000
C       -2.13510000       0.15370000      -1.31170000
H        1.17770000       1.93110000       0.28310000
H        0.05950000       2.06320000      -1.08010000
H       -0.55380000       2.11590000       0.58530000
H        0.72630000      -1.31260000      -1.63090000
H        1.94420000      -0.01260000      -1.40470000
H        2.03760000      -2.32470000       0.48860000
H        2.41780000      -0.67940000       2.14460000
H        0.06130000      -0.91080000       2.04060000
H       -3.16200000      -0.63570000       0.52760000
H       -2.40770000       1.02120000       0.70000000
H       -1.89390000       1.13440000      -1.71470000
H       -2.62640000      -0.51490000      -2.01380000
