14
Properties=species:S:1:pos:R:3 gdb_20594=T pbc="F F F"
C       -0.02400000       1.48710000      -0.18530000
C       -0.08320000       0.00960000      -0.03720000
C       -1.12100000      -0.87830000       0.02610000
C       -2.60230000      -0.65910000      -0.04090000
O       -2.98060000       0.25570000      -1.06280000
N       -0.55770000      -2.12770000       0.15860000
N        0.69650000      -2.06080000       0.18530000
O        1.05570000      -0.67690000       0.05620000
H        0.69360000       1.76900000      -0.96140000
H       -1.01210000       1.86170000      -0.45590000
H        0.29740000       1.96060000       0.74870000
H       -3.09050000      -1.63630000      -0.15390000
H       -2.97600000      -0.21630000       0.88860000
H       -2.70850000      -0.12130000      -1.90660000
