18
Properties=species:S:1:pos:R:3 gdb_115120=T pbc="F F F"
C       -0.00140000       1.62030000      -0.20800000
C        0.05350000       0.09950000      -0.03480000
C       -1.32360000      -0.54650000       0.16950000
C       -1.33550000      -2.08980000       0.06320000
N       -2.32770000      -2.51120000       1.04290000
C       -2.69910000      -1.57390000       1.96310000
O       -3.42550000      -1.71660000       2.91760000
C       -1.97950000      -0.27630000       1.52150000
O       -1.95680000       0.73570000       2.16780000
H        1.00340000       2.02880000      -0.35030000
H       -0.59910000       1.89310000      -1.08510000
H       -0.44880000       2.09470000       0.66740000
H        0.51970000      -0.35770000      -0.91710000
H        0.69430000      -0.15670000       0.81830000
H       -2.02280000      -0.14680000      -0.57980000
H       -1.60480000      -2.43290000      -0.94050000
H       -0.34400000      -2.49910000       0.30030000
H       -2.61160000      -3.47280000       1.15100000
