16
Properties=species:S:1:pos:R:3 gdb_131198=T pbc="F F F"
O       -0.09320000       1.32740000       0.25430000
C       -0.00120000       0.00640000      -0.02200000
C        0.07890000      -0.73950000      -1.17300000
C        0.18830000      -0.74900000      -2.66950000
C       -0.09280000      -2.26160000      -2.96430000
N        0.29630000      -2.98500000      -1.72950000
C        0.13690000      -2.06470000      -0.69310000
N        0.08340000      -2.19180000       0.61670000
N        0.01230000      -0.86810000       1.01840000
H       -0.05660000       1.81600000      -0.57340000
H       -0.52510000      -0.11130000      -3.20090000
H        1.19320000      -0.47220000      -3.01520000
H       -1.16300000      -2.39340000      -3.18220000
H        0.47650000      -2.62970000      -3.82200000
H       -0.15140000      -3.88210000      -1.59870000
H       -0.13120000      -0.64750000       1.98770000
