18
Properties=species:S:1:pos:R:3 gdb_92440=T pbc="F F F"
O        0.11720000       1.41510000      -0.06190000
C        0.02190000       0.00700000      -0.01070000
C        0.67220000      -0.63020000       1.27070000
C       -0.51070000      -1.34080000       1.94540000
N       -1.45580000      -0.28550000       2.39280000
C       -2.19680000       0.15540000       1.15950000
C       -1.44060000      -0.54260000       0.01600000
C       -1.21240000      -1.90100000       0.69550000
O       -1.50050000      -3.01630000       0.36450000
H       -0.06640000       1.76000000       0.81860000
H        0.52180000      -0.34390000      -0.91700000
H        1.46820000      -1.33270000       1.00610000
H        1.09490000       0.14300000       1.91840000
H       -0.26600000      -2.04760000       2.73590000
H       -2.10780000      -0.67190000       3.06540000
H       -3.24680000      -0.15910000       1.17230000
H       -2.17970000       1.24540000       1.06210000
H       -1.95380000      -0.55440000      -0.94260000
