22
Properties=species:S:1:pos:R:3 gdb_59305=T pbc="F F F"
C        0.61980000      -0.38760000      -1.93120000
C        0.04210000       0.03660000      -0.57330000
C        0.05330000       1.56960000      -0.45300000
C       -1.37230000      -0.51140000      -0.29210000
N       -2.24970000      -0.71190000      -1.45620000
C       -2.46130000      -2.05590000      -1.26110000
O       -3.09520000      -2.87970000      -1.86560000
C       -1.59810000      -2.03710000       0.02530000
C       -0.44790000      -3.02480000       0.15330000
H        1.65640000      -0.04810000      -2.02130000
H        0.60770000      -1.46920000      -2.07980000
H        0.05080000       0.05760000      -2.75360000
H        0.68970000      -0.36180000       0.22000000
H       -0.60590000       2.02850000      -1.20020000
H       -0.28450000       1.89790000       0.53540000
H        1.05930000       1.96950000      -0.61450000
H       -1.84140000       0.12140000       0.47220000
H       -2.66730000      -0.06630000      -2.11040000
H       -2.25830000      -2.13810000       0.89380000
H        0.22850000      -2.99880000      -0.70330000
H        0.13980000      -2.83410000       1.05730000
H       -0.84900000      -4.04030000       0.22470000
