25
Properties=species:S:1:pos:R:3 gdb_59335=T pbc="F F F"
C        0.10650000       1.52020000      -0.07160000
C        0.03600000       0.00030000       0.08350000
O        0.73290000      -0.43590000       1.25050000
C       -1.39390000      -0.52720000       0.07120000
C       -2.19340000      -0.47700000      -1.26140000
C       -2.70720000      -1.92910000      -0.99080000
C       -4.11170000      -1.93350000      -0.38200000
C       -2.62190000      -2.89980000      -2.16430000
C       -1.59430000      -2.06540000       0.09820000
H        1.14650000       1.85730000      -0.05540000
H       -0.35110000       1.84610000      -1.01140000
H       -0.42720000       2.01790000       0.74830000
H        0.58440000      -0.46820000      -0.74480000
H        0.29130000      -0.04690000       2.01380000
H       -1.95470000      -0.04140000       0.88100000
H       -2.95050000       0.30500000      -1.36890000
H       -1.52790000      -0.43490000      -2.13080000
H       -4.86320000      -1.64480000      -1.12620000
H       -4.37450000      -2.93070000      -0.01000000
H       -4.19080000      -1.23500000       0.45800000
H       -1.61910000      -2.90440000      -2.60450000
H       -2.85150000      -3.92440000      -1.84750000
H       -3.33340000      -2.63060000      -2.95430000
H       -0.70990000      -2.59090000      -0.27570000
H       -1.88510000      -2.52050000       1.04890000
