17
Properties=species:S:1:pos:R:3 gdb_71444=T pbc="F F F"
C        0.00950000       1.54620000       0.05950000
C        0.00550000       0.04640000       0.03560000
C       -1.21600000      -0.86190000      -0.01310000
N       -0.42840000      -1.98080000       0.67850000
C        0.63640000      -0.96730000       0.97880000
C        1.24350000      -0.79060000      -0.36420000
N        1.08680000      -2.04620000      -1.04080000
C        0.07270000      -2.77720000      -0.44690000
O       -0.38640000      -3.82180000      -0.82190000
H        1.00390000       1.93820000       0.29710000
H       -0.28430000       1.95790000      -0.91290000
H       -0.68780000       1.93330000       0.81100000
H       -2.01360000      -0.52730000       0.65470000
H       -1.64450000      -1.13290000      -0.98450000
H        1.10670000      -0.90480000       1.95240000
H        2.18510000      -0.26950000      -0.48390000
H        1.32320000      -2.20980000      -2.00570000
