18
Properties=species:S:1:pos:R:3 gdb_40452=T pbc="F F F"
C        0.07060000       1.46880000      -0.00640000
O        1.18650000       0.58340000      -0.12710000
C       -0.11540000       0.01150000       0.03900000
C       -0.36210000      -0.73920000       1.30300000
C        0.11210000      -0.19800000       2.64450000
O        0.02290000      -1.29690000       3.54810000
C        0.27670000      -2.49240000       2.81350000
C       -0.26370000      -2.22160000       1.42240000
N       -1.57570000      -1.57060000       1.33950000
H        0.03510000       2.05200000       0.91250000
H       -0.19420000       2.01540000      -0.91010000
H       -0.51570000      -0.48020000      -0.84710000
H        1.14370000       0.17080000       2.54440000
H       -0.51380000       0.60410000       3.05020000
H        1.35400000      -2.71670000       2.75880000
H       -0.22240000      -3.31210000       3.34130000
H        0.01060000      -2.87140000       0.59770000
H       -1.99820000      -1.52130000       2.26590000
