17
Properties=species:S:1:pos:R:3 gdb_30557=T pbc="F F F"
C        0.12610000       1.03180000      -0.62430000
N       -0.25780000       0.29220000       0.56070000
C        0.57390000      -0.52200000       1.02640000
O        0.27750000      -1.21540000       2.16390000
C        1.10830000      -2.24230000       2.50070000
C        1.70010000      -3.24880000       1.77700000
C        2.42850000      -4.04010000       2.71700000
C        2.24490000      -3.49480000       3.96260000
N        1.43700000      -2.38700000       3.81870000
H        1.12800000       0.77980000      -1.00690000
H       -0.60480000       0.84890000      -1.41970000
H        0.09960000       2.10580000      -0.40870000
H        1.56750000      -0.75400000       0.62120000
H        1.60200000      -3.41340000       0.71630000
H        3.01200000      -4.91940000       2.49270000
H        2.60600000      -3.79310000       4.93270000
H        1.11970000      -1.77220000       4.54800000
