12
Properties=species:S:1:pos:R:3 gdb_129134=T pbc="F F F"
N       -0.15400000       1.26840000      -0.08960000
C       -0.03470000       0.00560000       0.03090000
N        1.19500000      -0.66820000       0.13060000
C        1.14260000      -1.93280000       0.24610000
O        0.04680000      -2.72080000       0.28570000
N       -1.21610000      -2.12750000       0.19240000
C       -1.23820000      -0.84720000       0.07330000
C       -2.61810000      -0.21960000      -0.02670000
O       -3.63580000      -0.85710000       0.00090000
H        0.77340000       1.69900000      -0.10130000
H        2.03690000      -2.54610000       0.33000000
H       -2.58790000       0.87810000      -0.12680000
