14
Properties=species:S:1:pos:R:3 gdb_125116=T pbc="F F F"
C       -0.03730000       1.57350000       0.09420000
C        0.01710000       0.08890000      -0.01550000
C        0.05540000      -0.73550000      -1.10620000
O        0.05290000      -0.38190000      -2.40270000
N        0.09930000      -2.04200000      -0.70710000
N        0.09120000      -2.09770000       0.58350000
N        0.04120000      -0.81110000       1.03670000
C        0.01970000      -0.52020000       2.41580000
O        0.04270000      -1.34140000       3.28350000
H        0.82970000       1.98400000       0.62370000
H       -0.04420000       1.99690000      -0.91240000
H       -0.94030000       1.92020000       0.60900000
H        0.08640000      -1.19630000      -2.92070000
H       -0.02070000       0.56920000       2.58700000
