15
Properties=species:S:1:pos:R:3 gdb_109529=T pbc="F F F"
C        0.06930000       1.12640000      -0.39820000
O       -0.14020000       0.01460000       0.46890000
C       -1.33770000      -0.61900000       0.27740000
C       -1.44860000      -1.72280000      -0.77390000
C       -0.32380000      -2.02230000      -1.61040000
N        0.56270000      -2.24770000      -2.31790000
C       -1.41220000      -2.05020000       0.73340000
C       -0.26040000      -2.68090000       1.31500000
N        0.63810000      -3.21210000       1.81050000
H        1.03250000       1.55490000      -0.11990000
H        0.10050000       0.81090000      -1.44730000
H       -0.71770000       1.88130000      -0.26570000
H       -2.23170000      -0.00910000       0.41760000
H       -2.41310000      -1.86230000      -1.25080000
H       -2.35670000      -2.38360000       1.14980000
