18
Properties=species:S:1:pos:R:3 gdb_47762=T pbc="F F F"
O        0.03270000      -0.04010000      -0.10050000
C       -0.02380000       1.15770000       0.00130000
C       -1.30910000       1.95850000       0.04360000
C       -1.32960000       3.01950000      -1.08080000
C       -0.07680000       3.90510000      -1.05040000
C        1.20440000       3.06600000      -1.12460000
C        1.27120000       2.01590000       0.02060000
C        1.42940000       2.66130000       1.32330000
N        1.53380000       3.17780000       2.35290000
H       -2.15160000       1.26780000      -0.03020000
H       -1.36170000       2.46500000       1.01630000
H       -1.39480000       2.51010000      -2.05060000
H       -2.23290000       3.62970000      -0.98510000
H       -0.09710000       4.61240000      -1.88580000
H       -0.06690000       4.50390000      -0.13130000
H        1.23780000       2.51590000      -2.07260000
H        2.09570000       3.69900000      -1.08680000
H        2.10870000       1.32920000      -0.13060000
