18
Properties=species:S:1:pos:R:3 gdb_34308=T pbc="F F F"
N        0.08380000      -1.09770000      -0.00150000
C        0.04640000       0.05660000       0.00110000
C       -0.05940000       1.51120000       0.01310000
C       -0.83810000       2.10920000       1.21280000
C       -1.09760000       3.56840000       0.71710000
C       -0.41830000       3.58820000      -0.67360000
C        1.09600000       3.44270000      -0.46510000
O        1.25590000       2.08640000       0.00850000
C       -0.74280000       2.17620000      -1.20030000
H       -1.76440000       1.56030000       1.40090000
H       -0.22060000       2.05940000       2.11100000
H       -2.16850000       3.76920000       0.62710000
H       -0.67640000       4.31920000       1.39060000
H       -0.70010000       4.42530000      -1.31270000
H        1.66440000       3.56730000      -1.39510000
H        1.49370000       4.13590000       0.28470000
H       -0.25300000       1.91960000      -2.14170000
H       -1.81140000       1.96050000      -1.26210000
