23
Properties=species:S:1:pos:R:3 gdb_42040=T pbc="F F F"
C       -0.04220000       1.48670000      -0.31420000
C        1.40400000       1.68750000       0.22040000
C        1.44470000       0.19860000       0.67870000
C        1.57980000      -0.01640000       2.18030000
O        1.47660000      -1.38150000       2.54880000
C        0.16170000      -1.84080000       2.79670000
C       -0.74610000      -1.94770000       1.56590000
C       -1.08750000      -0.59710000       0.91380000
C        0.03150000      -0.02930000       0.04100000
H       -0.80280000       2.02770000       0.25680000
H       -0.19050000       1.71830000      -1.37160000
H        2.13850000       1.93670000      -0.54870000
H        1.50470000       2.41900000       1.02830000
H        2.22630000      -0.39060000       0.19060000
H        2.57480000       0.31610000       2.50200000
H        0.84300000       0.58790000       2.73500000
H        0.28300000      -2.83120000       3.24880000
H       -0.32500000      -1.19300000       3.54720000
H       -0.27880000      -2.61490000       0.83050000
H       -1.67120000      -2.44020000       1.89320000
H       -1.98790000      -0.70290000       0.29550000
H       -1.35270000       0.12200000       1.70150000
H        0.11690000      -0.64940000      -0.85770000
