16
Properties=species:S:1:pos:R:3 gdb_53629=T pbc="F F F"
C       -0.01800000       1.49120000       0.00760000
C        0.00310000       0.03640000       0.05660000
C        0.03710000      -1.16630000       0.10060000
C        0.03910000      -2.62210000       0.14520000
C       -1.37000000      -3.20910000      -0.15140000
C       -1.38830000      -4.66040000      -0.11160000
C       -1.37450000      -5.86820000      -0.07200000
C       -1.36700000      -7.23250000      -0.02900000
N       -1.35990000      -8.39380000       0.00770000
H        0.67100000       1.87330000      -0.75340000
H       -1.01890000       1.86520000      -0.23390000
H        0.27470000       1.92550000       0.96970000
H        0.75110000      -3.02750000      -0.58300000
H        0.36920000      -2.97570000       1.12870000
H       -2.08710000      -2.81290000       0.57670000
H       -1.70490000      -2.86480000      -1.13670000
