17
Properties=species:S:1:pos:R:3 gdb_114982=T pbc="F F F"
C        0.56930000       1.10090000      -0.29860000
O        0.58820000      -0.27920000       0.03940000
C        0.37770000      -0.53940000       1.38960000
C        0.24280000      -2.04930000       1.55820000
C        1.58640000      -2.71370000       1.54010000
C        2.69470000      -2.02970000       1.82530000
C        2.65250000      -0.61070000       2.22990000
O        3.60610000      -0.00270000       2.63910000
O        1.43260000       0.01210000       2.19240000
H        1.37930000       1.64790000       0.19470000
H        0.69510000       1.15930000      -1.38110000
H       -0.39060000       1.56120000      -0.02200000
H       -0.51460000      -0.00970000       1.75080000
H       -0.27120000      -2.27250000       2.50240000
H       -0.39530000      -2.42570000       0.75340000
H        1.63220000      -3.77380000       1.30700000
H        3.68150000      -2.47590000       1.83240000
