22
Properties=species:S:1:pos:R:3 gdb_14727=T pbc="F F F"
C        0.37230000       1.49730000      -0.23480000
C       -0.03610000       0.04990000       0.05190000
C        0.70910000      -0.55700000       1.24420000
C        0.29350000      -2.01460000       1.52810000
C        0.99650000      -2.60550000       2.66210000
C        1.58760000      -3.06300000       3.60720000
C        2.31320000      -3.64480000       4.73230000
C        3.35740000      -4.69140000       4.30260000
H        1.44240000       1.56950000      -0.45860000
H       -0.17500000       1.90510000      -1.09030000
H        0.17200000       2.14300000       0.62750000
H       -1.11750000       0.00380000       0.23820000
H        0.14350000      -0.56560000      -0.83980000
H        1.79060000      -0.52410000       1.06440000
H        0.52930000       0.04560000       2.14270000
H       -0.79010000      -2.05280000       1.70560000
H        0.46950000      -2.62140000       0.62920000
H        2.80980000      -2.84640000       5.29910000
H        1.60040000      -4.10580000       5.42860000
H        3.87470000      -5.09840000       5.17690000
H        2.88120000      -5.51790000       3.76800000
H        4.10230000      -4.24600000       3.63750000
