14
Properties=species:S:1:pos:R:3 gdb_80235=T pbc="F F F"
O       -0.09220000       1.47130000      -0.03600000
C        0.01430000       0.08240000       0.00440000
C        0.10960000      -0.64700000       1.40080000
N       -1.06010000      -0.12070000       2.12220000
C       -2.05610000      -0.00420000       1.15890000
O       -3.15430000       0.46750000       1.26540000
C       -1.36690000      -0.65800000      -0.07410000
C       -0.61030000      -1.80210000       0.64630000
O       -0.54790000      -2.98700000       0.57830000
H        0.79080000       1.85240000       0.00440000
H        0.74230000      -0.31230000      -0.71630000
H        1.01450000      -0.75490000       1.99280000
H       -0.98530000       0.53750000       2.88280000
H       -1.96090000      -0.76380000      -0.97550000
