20
Properties=species:S:1:pos:R:3 gdb_89236=T pbc="F F F"
C       -0.09950000       1.53530000      -0.00520000
C        0.05190000       0.01980000      -0.03270000
C        0.94290000      -0.54450000      -1.16690000
C        1.94680000      -1.29000000      -0.29200000
O        2.93290000      -2.06580000      -0.89910000
C        1.17700000      -1.89890000       0.91710000
C        2.39330000      -1.66320000       1.83190000
C        2.22970000      -0.39580000       0.97430000
N        0.72350000      -0.47370000       1.21000000
H        0.87760000       2.03100000       0.01340000
H       -0.63600000       1.88950000      -0.89130000
H       -0.65310000       1.84840000       0.88450000
H       -0.94280000      -0.43950000      -0.05720000
H        0.41680000      -1.21780000      -1.85020000
H        1.42150000       0.23960000      -1.76660000
H        3.36720000      -1.53510000      -1.57500000
H        0.46730000      -2.72930000       0.90860000
H        2.17410000      -1.55050000       2.89410000
H        3.27400000      -2.27360000       1.63470000
H        2.77110000       0.55070000       1.03820000
