19
Properties=species:S:1:pos:R:3 gdb_93877=T pbc="F F F"
C        0.64310000       1.29540000      -0.55620000
C       -0.02920000       0.10820000       0.13100000
O       -0.26340000      -0.97620000      -0.76250000
C        0.86520000      -1.84890000      -0.77310000
C        1.72160000      -1.53300000       0.46730000
O        2.92820000      -0.93150000       0.03810000
C        0.80130000      -0.55980000       1.26320000
C        1.53480000       0.31880000       2.15490000
C        2.18970000       1.02210000       2.87960000
H        1.64240000       1.03070000      -0.90900000
H        0.03500000       1.61020000      -1.40870000
H        0.73480000       2.13740000       0.13630000
H       -1.01160000       0.41110000       0.50820000
H        0.49000000      -2.87730000      -0.76930000
H        1.47990000      -1.70100000      -1.66940000
H        1.93360000      -2.43180000       1.06160000
H        3.33230000      -0.50920000       0.80700000
H        0.10690000      -1.17320000       1.85020000
H        2.73700000       1.65760000       3.53150000
