15
Properties=species:S:1:pos:R:3 gdb_44107=T pbc="F F F"
O       -0.07720000       0.07140000       0.17680000
C       -0.05540000       1.26790000       0.13940000
C       -1.30460000       2.23060000       0.04170000
C       -0.54220000       3.37430000       0.61860000
N       -0.46210000       3.59010000       1.87300000
C        0.96830000       3.77420000       2.17090000
C        1.65010000       3.33680000       0.88020000
C        1.18730000       2.15220000       0.01800000
N        0.67410000       3.54080000      -0.18100000
H       -1.58410000       2.34160000      -1.00970000
H       -2.14010000       1.88370000       0.64460000
H        1.22900000       4.81820000       2.39360000
H        1.21620000       3.17730000       3.05370000
H        2.66270000       3.67700000       0.67860000
H        1.92400000       1.78040000      -0.69130000
