15
Properties=species:S:1:pos:R:3 gdb_34059=T pbc="F F F"
C       -0.05540000      -1.18060000      -0.10920000
C       -0.01910000       0.02030000      -0.04670000
C       -0.00540000       1.44290000       0.08790000
C       -1.35610000       2.26270000       0.24590000
C       -0.42770000       3.33220000      -0.27550000
N        0.12680000       4.15110000       0.52690000
C        1.51540000       3.63830000       0.66590000
C        1.35150000       2.21890000       0.10630000
N        0.44470000       2.36160000      -1.02220000
H       -0.08240000      -2.24010000      -0.17970000
H       -2.08030000       1.82830000      -0.44650000
H       -1.78040000       2.44820000       1.23100000
H        2.27740000       4.18110000       0.08800000
H        1.78370000       3.69940000       1.72460000
H        2.22090000       1.58300000      -0.04490000
