17
Properties=species:S:1:pos:R:3 gdb_29657=T pbc="F F F"
C       -0.14670000       1.45810000      -0.01240000
N        0.00050000       0.02130000       0.04070000
C        0.12670000      -0.76790000      -1.08300000
O        0.18910000      -0.43320000      -2.23860000
O        0.16470000      -2.06500000      -0.63770000
C        0.07830000      -2.06860000       0.75500000
C        0.10190000      -3.38360000       1.43620000
C       -0.03690000      -0.79750000       1.17810000
N       -0.27070000      -0.22920000       2.43480000
H        0.74620000       1.97370000       0.36080000
H       -0.29160000       1.72650000      -1.06000000
H       -1.01040000       1.77500000       0.57830000
H       -0.77850000      -3.99170000       1.19410000
H        0.98720000      -3.96240000       1.14850000
H        0.12890000      -3.24790000       2.52130000
H       -0.46130000      -0.93540000       3.13390000
H        0.49750000       0.35150000       2.75800000
