17
Properties=species:S:1:pos:R:3 gdb_91845=T pbc="F F F"
C        0.82240000       1.36480000       0.08290000
N        0.00120000       0.16750000      -0.08410000
C        0.35800000      -0.65700000      -1.24610000
C        1.12780000      -1.84590000      -0.69510000
O        2.14770000      -1.47620000       0.23730000
C        0.87510000      -1.88410000       0.75740000
C       -0.04190000      -0.70640000       1.09100000
C        0.84090000      -3.09360000       1.53970000
N        0.77820000      -4.04270000       2.19680000
H        1.88880000       1.15380000       0.25490000
H        0.72950000       1.99020000      -0.81010000
H        0.44090000       1.94760000       0.92660000
H       -0.53700000      -1.02950000      -1.76520000
H        0.94370000      -0.07780000      -1.96540000
H        1.31700000      -2.74070000      -1.28200000
H        0.28010000      -0.17280000       1.98890000
H       -1.05350000      -1.09560000       1.27220000
