18
Properties=species:S:1:pos:R:3 gdb_33530=T pbc="F F F"
C       -0.14280000      -1.23520000      -0.21280000
C       -0.08780000      -0.04040000      -0.09440000
C       -0.04380000       1.41100000       0.06080000
C       -0.20580000       1.91940000       1.52730000
C        1.25850000       2.37040000       1.38870000
O        1.32170000       1.91690000       0.01510000
C       -0.91260000       2.09180000      -0.98480000
C       -0.63860000       3.49150000      -1.38310000
N       -0.34910000       2.37730000      -2.30740000
H       -0.18470000      -2.29060000      -0.32620000
H       -0.93640000       2.72200000       1.63140000
H       -0.39650000       1.14200000       2.26580000
H        1.44350000       3.44700000       1.46770000
H        1.97700000       1.83430000       2.01810000
H       -1.93580000       1.72180000      -1.00160000
H       -1.45970000       4.13640000      -1.68270000
H        0.20410000       3.99540000      -0.92010000
H        0.65250000       2.19150000      -2.27350000
