19
Properties=species:S:1:pos:R:3 gdb_2127=T pbc="F F F"
C       -0.01920000       1.51920000       0.11730000
C        0.04440000       0.02780000       0.00190000
C        0.02780000      -0.72560000      -1.10650000
C       -0.05900000      -0.28320000      -2.53420000
C        0.05100000      -2.20450000      -0.77280000
C        0.42650000      -2.23880000       0.72660000
C        0.08140000      -0.82700000       1.25370000
H        0.85440000       1.91070000       0.65500000
H       -0.06480000       2.01750000      -0.85420000
H       -0.89990000       1.83120000       0.69480000
H       -0.09150000       0.80400000      -2.63930000
H        0.79790000      -0.65110000      -3.11370000
H       -0.95550000      -0.69300000      -3.01850000
H       -0.93690000      -2.65250000      -0.95950000
H        0.75740000      -2.76610000      -1.39710000
H       -0.08040000      -3.03630000       1.27630000
H        1.50270000      -2.41190000       0.82810000
H        0.80810000      -0.46310000       1.99090000
H       -0.89630000      -0.80450000       1.75910000
