15
Properties=species:S:1:pos:R:3 gdb_133087=T pbc="F F F"
C       -0.00140000       1.39730000       0.00730000
O       -0.02480000      -0.03000000       0.00380000
C       -1.23110000      -0.62420000       0.01120000
N       -2.32900000       0.12110000       0.02140000
C       -3.50630000      -0.51900000       0.02850000
C       -3.64570000      -1.89650000       0.02580000
C       -2.46710000      -2.64200000       0.01490000
F       -2.53580000      -3.97160000       0.01180000
C       -1.23400000      -2.02810000       0.00740000
H        1.05510000       1.66890000      -0.00010000
H       -0.50460000       1.80210000      -0.87510000
H       -0.49090000       1.79750000       0.89950000
H       -4.38910000       0.11500000       0.03680000
H       -4.61290000      -2.38110000       0.03170000
H       -0.31190000      -2.59320000      -0.00110000
