17
Properties=species:S:1:pos:R:3 gdb_96060=T pbc="F F F"
O        0.49130000       1.02530000       0.60230000
C       -0.00190000      -0.15320000       0.03080000
C       -1.41150000      -0.07930000      -0.59310000
C       -1.40650000      -1.25600000      -1.57350000
O       -0.01350000      -1.54920000      -1.85610000
C        0.80900000      -0.67950000      -1.16700000
O        1.13010000       0.48820000      -1.95980000
C        2.11070000       0.36500000      -2.88210000
O        2.40790000       1.25070000      -3.62370000
H        0.69190000       1.62790000      -0.12500000
H        0.02270000      -0.91600000       0.81610000
H       -2.20490000      -0.14930000       0.15240000
H       -1.51530000       0.87430000      -1.11930000
H       -1.84930000      -2.16010000      -1.14240000
H       -1.91580000      -1.03760000      -2.51610000
H        1.73930000      -1.19580000      -0.91210000
H        2.59670000      -0.62770000      -2.86100000
