18
Properties=species:S:1:pos:R:3 gdb_97150=T pbc="F F F"
C        0.04650000       1.35860000      -0.11640000
N       -0.05210000      -0.08700000      -0.22630000
C       -1.14710000      -0.66770000       0.00250000
O       -2.33700000      -0.08670000       0.32750000
C       -3.21140000      -1.06380000       0.94540000
C       -2.62280000      -2.42520000       0.63270000
C       -2.39870000      -2.71000000      -0.83610000
C       -1.27550000      -2.14970000       0.00270000
O       -0.11630000      -2.86390000       0.22400000
H        0.99360000       1.61650000       0.36790000
H        0.06640000       1.80500000      -1.11800000
H       -0.77990000       1.81160000       0.44350000
H       -3.23950000      -0.87040000       2.02380000
H       -4.21160000      -0.90650000       0.53010000
H       -2.77360000      -3.24250000       1.32600000
H       -2.27590000      -3.75280000      -1.10620000
H       -2.88690000      -2.09000000      -1.58280000
H        0.59580000      -2.22070000       0.07920000
