23
Properties=species:S:1:pos:R:3 gdb_76300=T pbc="F F F"
C       -1.16550000       0.79190000      -0.20110000
C       -0.07800000      -0.25730000      -0.01000000
C        1.20950000      -0.22500000      -0.89940000
C        1.57950000       1.10390000      -1.54920000
C        2.04090000      -0.62340000       0.37770000
C        3.31900000       0.01190000       0.61950000
C        4.37710000       0.54960000       0.81980000
C        0.80710000      -0.24510000       1.28070000
C        0.91630000       1.07070000       2.04350000
H       -0.78090000       1.81240000      -0.12070000
H       -1.63420000       0.69180000      -1.18630000
H       -1.95470000       0.67580000       0.54990000
H       -0.53720000      -1.24790000      -0.10400000
H        1.22670000      -1.00280000      -1.66920000
H        1.60780000       1.93120000      -0.83510000
H        2.57160000       1.04000000      -2.00660000
H        0.86130000       1.36240000      -2.33450000
H        2.17790000      -1.70990000       0.39300000
H        5.31380000       1.01690000       0.99700000
H        0.55080000      -1.03660000       1.99200000
H        1.19490000       1.91050000       1.40140000
H       -0.03570000       1.31750000       2.52520000
H        1.68000000       0.99540000       2.82360000
