16
Properties=species:S:1:pos:R:3 gdb_36497=T pbc="F F F"
N       -0.11880000      -1.11110000      -0.15680000
C       -0.06250000       0.04210000      -0.11900000
C        0.00030000       1.49930000      -0.04590000
C        1.43800000       2.02900000       0.06640000
O        2.13820000       1.65510000      -1.11450000
C        3.04430000       2.68280000      -1.50630000
C        2.51620000       3.94920000      -0.87170000
O        1.11780000       4.15390000      -1.10900000
C        1.52150000       3.54330000       0.12100000
H       -0.45290000       1.93300000      -0.94220000
H       -0.58290000       1.82990000       0.82120000
H        1.92200000       1.60890000       0.96250000
H        4.06410000       2.48450000      -1.14150000
H        3.06210000       2.71360000      -2.60010000
H        3.12960000       4.84120000      -0.78560000
H        1.30510000       4.08840000       1.03540000
