17
Properties=species:S:1:pos:R:3 gdb_63291=T pbc="F F F"
C        0.21850000       1.40080000      -0.25620000
C       -0.05480000      -0.06470000       0.01920000
C       -1.52440000      -0.43510000      -0.03670000
O        0.72210000      -0.91210000      -0.91760000
C        1.48290000      -1.44750000       0.08690000
N        2.43310000      -2.25950000       0.07820000
C        0.74430000      -0.71570000       1.20500000
C        1.51910000       0.14470000       2.07840000
N        2.11690000       0.85190000       2.76950000
H        1.28850000       1.61850000      -0.22470000
H       -0.16260000       1.66620000      -1.24640000
H       -0.28060000       2.02920000       0.48740000
H       -1.94100000      -0.17670000      -1.01460000
H       -1.66630000      -1.50720000       0.12460000
H       -2.08300000       0.11170000       0.72930000
H        2.66810000      -2.55850000      -0.86950000
H        0.13280000      -1.39530000       1.80480000
