16
Properties=species:S:1:pos:R:3 gdb_84409=T pbc="F F F"
C       -0.10600000       1.58450000       0.01850000
C        0.01720000       0.05260000      -0.03410000
C        0.83850000      -0.50580000      -1.17000000
C        1.84230000      -1.24090000      -0.69150000
N        1.82260000      -1.26770000       0.72250000
C        2.73630000      -1.93510000       1.52480000
O        3.65550000      -2.58270000       1.08660000
C        0.74190000      -0.49310000       1.20480000
O        0.48490000      -0.31080000       2.36680000
H        0.87990000       2.05700000      -0.01400000
H       -0.68950000       1.95190000      -0.82990000
H       -0.60390000       1.88440000       0.94410000
H       -0.99440000      -0.37690000      -0.02990000
H        0.63400000      -0.32940000      -2.21580000
H        2.62370000      -1.79070000      -1.19270000
H        2.51050000      -1.79580000       2.59280000
