19
Properties=species:S:1:pos:R:3 gdb_119634=T pbc="F F F"
O       -0.14140000       1.44900000       0.20030000
C       -0.04990000       0.03590000       0.27580000
C       -1.35610000      -0.53280000      -0.27600000
C       -1.39610000      -2.03640000      -0.23370000
C       -0.51860000      -2.89080000      -1.13630000
O       -1.04120000      -4.21140000      -1.06560000
C       -2.41020000      -4.16590000      -0.67850000
C       -2.57700000      -2.85680000       0.05710000
O       -1.57260000      -2.65180000       1.05710000
H        0.65150000       1.82400000       0.59420000
H        0.80470000      -0.33950000      -0.31050000
H        0.08410000      -0.30880000       1.31190000
H       -2.18490000      -0.12830000       0.31270000
H       -1.48670000      -0.18550000      -1.30780000
H       -0.55590000      -2.49240000      -2.16410000
H        0.52830000      -2.93280000      -0.81820000
H       -3.08510000      -4.18780000      -1.55040000
H       -2.61140000      -5.04610000      -0.05920000
H       -3.56130000      -2.44370000       0.26150000
