21
Properties=species:S:1:pos:R:3 gdb_111227=T pbc="F F F"
C        0.00370000       1.30070000       0.23020000
O       -0.08420000      -0.00980000      -0.28230000
C       -1.35660000      -0.58900000      -0.12440000
C       -1.31940000      -2.05530000      -0.62640000
C       -0.84240000      -2.44770000       0.80460000
C       -1.63760000      -1.19880000       1.29620000
C       -3.10730000      -1.55320000       1.34230000
C       -3.63390000      -2.20390000       0.30310000
C       -2.75230000      -2.55800000      -0.87490000
H        1.01450000       1.66190000       0.02550000
H       -0.71990000       1.97360000      -0.25590000
H       -0.17070000       1.33730000       1.31570000
H       -2.13690000       0.07430000      -0.52660000
H       -0.65450000      -2.25660000      -1.46920000
H       -1.14630000      -3.41920000       1.20120000
H        0.23420000      -2.31050000       0.91100000
H       -1.28950000      -0.65890000       2.17810000
H       -3.70270000      -1.27060000       2.20520000
H       -4.68020000      -2.49440000       0.27710000
H       -3.15440000      -2.11490000      -1.79710000
H       -2.75160000      -3.64460000      -1.04170000
