21
Properties=species:S:1:pos:R:3 gdb_51234=T pbc="F F F"
O       -0.70680000       1.01900000       0.76760000
C        0.06070000       1.01770000      -0.16160000
C        1.37360000       1.76720000      -0.19520000
C        1.30580000       2.93740000      -1.17440000
C        1.30340000       2.63530000      -2.69910000
C        2.41040000       3.70990000      -2.91620000
C        2.49440000       3.95420000      -1.38330000
C        1.60520000       5.10630000      -0.85870000
C        0.39020000       4.13490000      -0.76730000
H       -0.18330000       0.46500000      -1.09870000
H        1.59420000       2.11980000       0.81760000
H        2.16680000       1.07450000      -0.50900000
H        1.64990000       1.62380000      -2.93270000
H        0.35350000       2.79450000      -3.21780000
H        3.32760000       3.31630000      -3.35990000
H        2.10560000       4.58610000      -3.49600000
H        3.47480000       3.82120000      -0.92180000
H        1.92030000       5.47880000       0.11930000
H        1.49680000       5.96400000      -1.52910000
H       -0.42740000       4.33620000      -1.46530000
H       -0.03860000       4.04210000       0.23340000
