19
Properties=species:S:1:pos:R:3 gdb_87221=T pbc="F F F"
O        1.78060000      -0.04630000       0.00570000
C        1.24750000      -1.31220000      -0.20810000
C        0.83400000      -2.16870000       0.97530000
C       -0.21290000      -1.52780000       0.08950000
O       -0.84250000      -0.35790000       0.57340000
C       -1.09370000      -2.36560000      -0.81440000
C       -2.26560000      -2.97860000      -0.08360000
C       -2.80070000      -4.30210000      -0.42090000
O       -1.98480000      -4.11810000       0.73780000
H        1.03840000       0.50320000       0.29630000
H        1.68110000      -1.80420000      -1.07450000
H        0.95100000      -3.24560000       0.93000000
H        0.99160000      -1.72840000       1.95510000
H       -1.17030000      -0.53120000       1.46150000
H       -1.47050000      -1.73120000      -1.62710000
H       -0.49520000      -3.16370000      -1.26640000
H       -2.94820000      -2.26300000       0.37810000
H       -3.84730000      -4.53220000      -0.22600000
H       -2.34400000      -4.87440000      -1.22780000
