16
Properties=species:S:1:pos:R:3 gdb_128706=T pbc="F F F"
C        0.04790000       1.34340000       0.07070000
O       -0.02300000      -0.09120000       0.01800000
C       -1.24770000      -0.59480000       0.01130000
N       -2.35330000       0.07700000       0.03610000
O       -3.36430000      -0.94710000       0.01460000
C       -2.77800000      -2.18060000      -0.02400000
N       -3.32680000      -3.32020000      -0.05530000
N       -1.40970000      -1.94960000      -0.01870000
C       -0.39740000      -2.98350000      -0.06790000
H        1.11030000       1.58340000       0.06960000
H       -0.44860000       1.77860000      -0.80030000
H       -0.43220000       1.71280000       0.98050000
H       -4.34000000      -3.23800000      -0.03840000
H       -0.74280000      -3.82930000       0.52920000
H       -0.22940000      -3.32610000      -1.09400000
H        0.53370000      -2.58870000       0.33970000
