19
Properties=species:S:1:pos:R:3 gdb_109919=T pbc="F F F"
C       -0.00550000       1.31530000      -0.04780000
O       -0.03340000      -0.10100000       0.05300000
C        0.67170000      -0.62530000       1.17580000
C       -0.35490000      -1.02370000       2.28460000
O       -1.53100000      -0.23670000       2.26130000
C       -0.58720000      -2.49330000       2.01320000
C        0.30110000      -2.99700000       1.15980000
C        1.32260000      -1.96830000       0.72210000
O        1.65180000      -1.99320000      -0.64770000
H        1.02470000       1.68550000      -0.14040000
H       -0.56100000       1.58050000      -0.95080000
H       -0.48040000       1.78390000       0.82180000
H        1.41180000       0.10430000       1.51940000
H        0.07870000      -0.86670000       3.27970000
H       -1.84420000      -0.27070000       1.34860000
H       -1.39310000      -3.03170000       2.49960000
H        0.35820000      -4.02480000       0.81940000
H        2.26490000      -2.11980000       1.26530000
H        0.96590000      -1.46750000      -1.08140000
