23
Properties=species:S:1:pos:R:3 gdb_121095=T pbc="F F F"
C       -0.04820000       1.42140000       0.01400000
O       -0.01330000       0.01600000       0.01840000
C        0.62480000      -0.52400000      -1.11960000
C        0.63670000      -2.04520000      -1.00050000
C        1.27030000      -2.74210000      -2.23430000
C        2.06280000      -3.94560000      -1.66940000
C        2.25150000      -3.59500000      -0.20630000
C        3.17380000      -4.37940000       0.67260000
C        1.47250000      -2.56970000       0.14390000
H        0.96390000       1.85720000       0.00360000
H       -0.59650000       1.81500000      -0.85720000
H       -0.55990000       1.74130000       0.92530000
H        0.09420000      -0.21590000      -2.03820000
H        1.65910000      -0.14460000      -1.19710000
H       -0.41020000      -2.35760000      -0.87000000
H        0.52820000      -3.03120000      -2.98300000
H        1.96410000      -2.04720000      -2.72240000
H        1.50250000      -4.88730000      -1.76660000
H        3.01410000      -4.10630000      -2.19150000
H        4.20420000      -4.34830000       0.29530000
H        3.17500000      -4.00110000       1.69850000
H        2.88820000      -5.43920000       0.70160000
H        1.39800000      -2.15260000       1.14200000
