23
Properties=species:S:1:pos:R:3 gdb_39468=T pbc="F F F"
C        0.01520000       1.55400000      -0.14750000
C        1.53240000       1.84710000      -0.02100000
C        2.00090000       2.03580000       1.44250000
C        1.78220000       0.83550000       2.38220000
C        0.32140000       0.37390000       2.54500000
C       -0.27110000      -0.50190000       1.42020000
C       -0.08470000       0.01320000      -0.03520000
C        1.25030000      -0.40800000      -0.62490000
C        2.12580000       0.59540000      -0.63700000
H       -0.59390000       2.08830000       0.58710000
H       -0.32400000       1.86320000      -1.14140000
H        1.80540000       2.75220000      -0.57630000
H        3.07040000       2.28400000       1.44230000
H        1.48560000       2.91350000       1.85600000
H        2.39830000      -0.00990000       2.05470000
H        2.16230000       1.12340000       3.37010000
H        0.23800000      -0.19990000       3.47620000
H       -0.31160000       1.25880000       2.69240000
H        0.15790000      -1.51000000       1.48750000
H       -1.34300000      -0.61930000       1.62250000
H       -0.91670000      -0.37370000      -0.63490000
H        1.44930000      -1.42790000      -0.93810000
H        3.16070000       0.53040000      -0.95660000
