23
Properties=species:S:1:pos:R:3 gdb_122226=T pbc="F F F"
C        0.57120000       0.25260000       1.18560000
O       -0.05780000       0.05820000      -0.06590000
C       -1.22150000      -0.72700000      -0.02060000
C       -2.43290000      -0.05700000       0.60340000
C       -2.82790000       1.24000000      -0.11200000
C       -4.01590000       1.93460000       0.53830000
O       -4.29350000       3.11470000      -0.20080000
C       -1.39620000      -1.60310000      -1.22360000
C       -1.02560000      -2.21790000       0.11360000
H        1.50760000       0.78050000       0.98950000
H       -0.03480000       0.86280000       1.87010000
H        0.79560000      -0.70330000       1.67990000
H       -3.26790000      -0.76810000       0.58540000
H       -2.23650000       0.14790000       1.66470000
H       -1.97720000       1.92890000      -0.12660000
H       -3.07430000       1.02890000      -1.15910000
H       -4.88650000       1.25700000       0.54740000
H       -3.78020000       2.16980000       1.59000000
H       -5.04650000       3.55360000       0.20530000
H       -2.39850000      -1.75810000      -1.60820000
H       -0.61930000      -1.55190000      -1.97720000
H       -0.00800000      -2.57560000       0.22330000
H       -1.77110000      -2.79910000       0.64600000
