15
Properties=species:S:1:pos:R:3 gdb_42685=T pbc="F F F"
O        0.05270000       0.00680000      -0.00650000
C       -0.01710000       1.20100000       0.00690000
C       -1.17040000       2.18090000       0.03950000
C       -0.68660000       3.24830000       1.08880000
C       -0.94910000       4.36860000       0.05880000
C       -0.72640000       3.27070000      -1.00430000
O        0.70000000       3.04150000      -1.15070000
C        1.06420000       2.29740000      -0.00180000
O        0.74420000       3.01650000       1.17590000
H       -2.19690000       1.83340000       0.05540000
H       -1.09880000       3.28370000       2.09610000
H       -1.98990000       4.70510000       0.08210000
H       -0.26310000       5.21710000       0.05480000
H       -1.17660000       3.32750000      -1.99420000
H        2.11710000       2.03220000      -0.02460000
