19
Properties=species:S:1:pos:R:3 gdb_41543=T pbc="F F F"
C        0.00160000       1.49260000       0.33110000
O        1.33750000       1.64940000      -0.19920000
C        1.43320000       0.23100000      -0.49520000
C       -0.02790000      -0.00450000      -0.04410000
C       -0.64230000      -0.39520000      -1.38230000
C        0.00110000       0.45570000      -2.52880000
C       -0.11220000      -0.76370000      -3.47470000
C        0.36720000      -1.34270000      -2.12420000
C        1.34250000      -0.11890000      -1.97170000
H       -0.02630000       1.69510000       1.40910000
H       -0.72510000       2.14110000      -0.17400000
H        2.26090000      -0.24040000       0.04480000
H       -0.22970000      -0.70830000       0.76480000
H       -1.70940000      -0.61970000      -1.43510000
H       -0.20190000       1.50220000      -2.75760000
H       -1.11830000      -1.04400000      -3.80010000
H        0.59480000      -0.80670000      -4.30780000
H        0.58300000      -2.38470000      -1.87870000
H        2.23840000      -0.07010000      -2.59270000
