15
Properties=species:S:1:pos:R:3 gdb_54439=T pbc="F F F"
C        0.87330000       1.01810000       0.05600000
C       -0.30930000       0.09670000      -0.11760000
O       -1.21790000      -0.00030000       0.67730000
C       -0.32570000      -0.74050000      -1.34950000
C       -1.49500000      -1.44700000      -1.93820000
C       -0.30460000      -2.26480000      -1.45330000
C        0.85230000      -2.02210000      -2.38770000
O        1.67080000      -2.65300000      -2.96690000
O        0.72710000      -0.63190000      -2.34850000
H        1.80770000       0.44760000       0.02730000
H        0.92170000       1.72720000      -0.77760000
H        0.78280000       1.55250000       1.00170000
H       -2.36500000      -1.51030000      -1.29330000
H       -1.68500000      -1.33690000      -3.00030000
H       -0.37380000      -3.01320000      -0.67760000
