15
Properties=species:S:1:pos:R:3 gdb_20914=T pbc="F F F"
C        0.12700000       1.59080000      -0.03900000
C       -0.01410000       0.07700000       0.11890000
N        0.68330000      -0.43420000       1.28180000
N        2.05950000      -0.44140000       1.34600000
C        2.32860000      -0.94850000       2.50740000
N        1.19300000      -1.27010000       3.20290000
C        0.08060000      -0.93980000       2.41730000
O       -1.09840000      -1.07000000       2.67540000
H        1.18030000       1.87120000      -0.12370000
H       -0.39320000       1.92400000      -0.94210000
H       -0.30380000       2.11390000       0.81960000
H       -1.05930000      -0.21080000       0.25840000
H        0.36900000      -0.43980000      -0.76740000
H        3.32700000      -1.10290000       2.88460000
H        1.11900000      -1.67700000       4.11860000
