20
Properties=species:S:1:pos:R:3 gdb_110374=T pbc="F F F"
C       -1.07000000       1.17640000      -0.39940000
C       -0.12060000       0.05210000       0.03260000
C        0.59930000      -0.57840000      -1.14900000
C        1.13270000      -1.94090000      -1.31880000
C        0.18470000      -3.09440000      -0.94830000
O       -0.71140000      -2.91450000       0.17680000
C       -1.78120000      -2.47600000      -0.70970000
C       -0.83460000      -2.51490000      -1.91960000
N        0.08050000      -1.36210000      -2.30150000
H       -0.54150000       1.94020000      -0.98050000
H       -1.88220000       0.79630000      -1.02750000
H       -1.51650000       1.66710000       0.47070000
H        0.66940000       0.47700000       0.66620000
H       -0.62490000      -0.68730000       0.64930000
H        1.27960000       0.15190000      -1.59330000
H        2.15380000      -2.12130000      -1.64610000
H        0.60760000      -4.09970000      -0.99790000
H       -2.57170000      -3.23520000      -0.76530000
H       -2.22140000      -1.52040000      -0.41480000
H       -1.17740000      -3.01330000      -2.82460000
