18
Properties=species:S:1:pos:R:3 gdb_9902=T pbc="F F F"
C       -0.31640000       1.50240000      -0.08010000
C        0.27390000       0.09030000       0.08700000
C        0.89110000      -0.42010000      -1.13230000
C        1.39500000      -0.83660000      -2.14460000
C        1.99030000      -1.29810000      -3.37760000
C        1.96670000      -0.31630000      -4.53130000
C        3.02120000      -2.35630000      -3.32780000
O        1.69370000      -2.66440000      -3.73880000
H        0.46010000       2.21700000      -0.36600000
H       -1.08640000       1.51220000      -0.85610000
H       -0.76690000       1.83970000       0.85800000
H        1.01500000       0.09500000       0.89670000
H       -0.51550000      -0.60240000       0.40580000
H        2.50650000       0.59850000      -4.26860000
H        2.42870000      -0.76290000      -5.41520000
H        0.93590000      -0.04370000      -4.77570000
H        3.77920000      -2.39220000      -4.11040000
H        3.32210000      -2.76320000      -2.36410000
