18
Properties=species:S:1:pos:R:3 gdb_88856=T pbc="F F F"
O        0.09420000       1.42010000       0.34330000
C        0.00710000       0.05020000       0.13420000
C       -0.53410000      -0.89840000       1.17820000
C       -1.30340000      -0.66000000      -0.11380000
C       -2.62510000       0.08710000      -0.10900000
C       -3.84540000      -0.77670000       0.31680000
O       -4.49370000       0.00610000       1.35680000
C       -3.68350000       1.05840000       1.56970000
N       -2.64600000       1.21230000       0.85760000
H       -0.76840000       1.71910000       0.67610000
H        0.85970000      -0.29310000      -0.44460000
H       -0.05480000      -1.85910000       1.33470000
H       -0.93370000      -0.44060000       2.07760000
H       -1.28380000      -1.46210000      -0.84830000
H       -2.78460000       0.51190000      -1.10830000
H       -4.57300000      -0.94470000      -0.47940000
H       -3.54830000      -1.73450000       0.75320000
H       -4.00250000       1.72260000       2.36550000
