20
Properties=species:S:1:pos:R:3 gdb_58911=T pbc="F F F"
C        0.05730000       1.57000000      -0.00080000
C       -0.02010000       0.04510000       0.01440000
O        0.71320000      -0.52510000       1.09900000
C       -1.43460000      -0.49190000       0.02130000
C       -1.71370000      -1.98580000      -0.25880000
C       -2.99670000      -1.46960000      -0.87980000
C       -3.47530000      -0.30690000      -0.07240000
C       -2.50080000      -0.07330000       1.06630000
N       -2.42810000      -0.09940000      -1.13140000
H        1.09920000       1.89060000      -0.08210000
H       -0.50830000       1.97360000      -0.84550000
H       -0.35860000       1.99810000       0.91920000
H        0.47330000      -0.33980000      -0.88650000
H        0.38180000      -0.12950000       1.91290000
H       -1.03310000      -2.37760000      -1.01940000
H       -1.75990000      -2.67610000       0.58890000
H       -3.62860000      -1.95230000      -1.61710000
H       -4.47230000       0.10300000      -0.18910000
H       -2.59170000      -0.66500000       1.98350000
H       -2.44190000       0.98980000       1.31280000
