15
Properties=species:S:1:pos:R:3 gdb_126276=T pbc="F F F"
C       -0.25170000       1.62070000       0.06570000
C        0.09230000       0.12390000      -0.02810000
C        0.86520000      -0.36230000       1.15290000
C        2.14460000      -0.82830000       1.29280000
O        2.34730000      -1.12360000       2.58570000
N        1.15000000      -0.82690000       3.25700000
N        0.31350000      -0.39100000       2.41850000
C        3.22480000      -1.03180000       0.31800000
O        4.32120000      -1.45320000       0.58980000
H        0.65520000       2.23220000       0.08590000
H       -0.85230000       1.92650000      -0.79510000
H       -0.82120000       1.82820000       0.97520000
H       -0.83360000      -0.45880000      -0.09620000
H        0.65850000      -0.07800000      -0.94240000
H        2.93780000      -0.75640000      -0.71740000
