20
Properties=species:S:1:pos:R:3 gdb_14782=T pbc="F F F"
O       -0.02100000       1.46340000       0.21460000
C        0.05260000       0.05980000       0.01870000
C       -1.36120000      -0.50050000       0.10510000
C       -1.41580000      -2.01780000      -0.09310000
C       -2.83870000      -2.58050000      -0.00460000
C       -2.89190000      -4.10650000      -0.19510000
C       -4.31120000      -4.62420000      -0.21240000
O       -4.74870000      -5.47730000       0.51570000
H        0.87030000       1.82140000       0.17020000
H        0.48940000      -0.18370000      -0.96420000
H        0.68850000      -0.41760000       0.78260000
H       -1.78110000      -0.23150000       1.08210000
H       -1.98000000       0.00190000      -0.64860000
H       -0.98550000      -2.27940000      -1.06980000
H       -0.78510000      -2.51150000       0.65860000
H       -3.27470000      -2.32220000       0.96860000
H       -3.46990000      -2.09600000      -0.76170000
H       -2.43690000      -4.36200000      -1.16380000
H       -2.33710000      -4.63130000       0.58830000
H       -4.96330000      -4.13660000      -0.97660000
