18
Properties=species:S:1:pos:R:3 gdb_86685=T pbc="F F F"
O        0.18760000       1.17140000      -0.57530000
C        0.05380000      -0.08120000       0.04370000
C        0.01870000      -0.11620000       1.60900000
N       -1.32610000      -0.68640000       1.51780000
C       -2.10590000      -1.22160000       2.47950000
O       -1.81300000      -1.26250000       3.65880000
C       -1.39930000      -0.57210000       0.07310000
C       -2.53460000      -0.01680000      -0.72910000
C       -2.11630000      -1.46760000      -0.88800000
H        1.12410000       1.38220000      -0.64240000
H        0.74730000      -0.81800000      -0.38030000
H        0.74160000      -0.76710000       2.10830000
H        0.03910000       0.88060000       2.06080000
H       -3.05510000      -1.62680000       2.07320000
H       -3.46460000       0.18790000      -0.20950000
H       -2.28230000       0.68790000      -1.51340000
H       -1.59250000      -1.76210000      -1.79210000
H       -2.77000000      -2.23170000      -0.48060000
