18
Properties=species:S:1:pos:R:3 gdb_89887=T pbc="F F F"
O        0.54950000       0.75210000      -0.86030000
C       -0.07770000      -0.20240000      -0.04120000
C        0.30000000      -0.24550000       1.47420000
C       -1.20120000      -0.27950000       1.76830000
C       -1.96330000      -1.30050000       2.55750000
N       -1.84820000       0.07230000       3.00900000
C       -2.92420000       0.92850000       3.16440000
O       -3.99810000       0.61560000       3.61720000
C       -1.52390000       0.19310000       0.34490000
H        1.44260000       0.44960000      -1.05400000
H       -0.04260000      -1.20500000      -0.48820000
H        0.91140000      -1.07450000       1.83780000
H        0.74690000       0.70580000       1.77770000
H       -2.93840000      -1.61550000       2.19310000
H       -1.42570000      -2.03910000       3.14690000
H       -2.66310000       1.96740000       2.88560000
H       -1.62610000       1.28060000       0.28480000
H       -2.35230000      -0.28170000      -0.18420000
