15
Properties=species:S:1:pos:R:3 gdb_44730=T pbc="F F F"
O       -0.12930000       0.03290000       0.02820000
C       -0.05690000       1.22610000      -0.03130000
N       -1.01090000       2.22690000      -0.11560000
C       -0.06780000       3.33960000      -0.04190000
C        0.30750000       3.79760000       1.39540000
C        1.49470000       2.77070000       1.40610000
C        1.54670000       1.80270000       2.48970000
N        1.57910000       1.05800000       3.37330000
C        1.08010000       2.27800000      -0.02530000
H       -1.99810000       2.19000000       0.10070000
H       -0.18070000       4.09810000      -0.81620000
H        0.64980000       4.83140000       1.46560000
H       -0.46590000       3.62380000       2.14430000
H        2.45540000       3.28900000       1.36200000
H        1.86360000       2.18930000      -0.77380000
