18
Properties=species:S:1:pos:R:3 gdb_73972=T pbc="F F F"
C       -0.13150000       1.43470000      -0.02270000
C       -0.06430000      -0.05100000       0.08340000
C       -0.99990000      -0.95990000       0.33940000
C       -2.39810000      -1.40340000      -0.03100000
N       -2.25750000      -1.69410000      -1.49320000
C       -1.84090000      -2.71690000      -0.51040000
C       -0.46680000      -2.34120000       0.12160000
O        0.77560000      -2.19490000      -0.53080000
C        1.19910000      -0.84320000      -0.27290000
H        0.53850000       1.92080000       0.69840000
H        0.18400000       1.76940000      -1.01890000
H       -1.14430000       1.80240000       0.15920000
H       -3.35940000      -1.17760000       0.40980000
H       -3.17890000      -1.98460000      -1.82690000
H       -2.30020000      -3.69780000      -0.50210000
H       -0.36520000      -2.93870000       1.04330000
H        1.66600000      -0.44300000      -1.18260000
H        1.96110000      -0.82920000       0.52460000
