17
Properties=species:S:1:pos:R:3 gdb_44429=T pbc="F F F"
O       -0.20410000       0.08340000      -0.47320000
C       -0.09630000       1.18620000      -0.06200000
O       -1.15010000       2.05740000       0.33380000
C       -0.13150000       2.84410000       1.08890000
C        0.70440000       4.17640000       1.06860000
C        1.93140000       3.12360000       1.13070000
C        0.94340000       2.30580000       0.21330000
C        0.91160000       3.23420000      -1.05260000
C        0.73240000       4.62710000      -0.38730000
H       -0.13580000       2.43820000       2.10280000
H        0.57870000       4.92510000       1.85130000
H        2.87450000       3.46070000       0.69440000
H        2.08870000       2.70070000       2.12230000
H        1.85000000       3.13220000      -1.60380000
H        0.09500000       2.98900000      -1.73280000
H       -0.19670000       5.11800000      -0.68630000
H        1.55880000       5.31280000      -0.59160000
