19
Properties=species:S:1:pos:R:3 gdb_113340=T pbc="F F F"
C       -0.46280000       0.90080000      -0.18140000
O        0.53200000      -0.07850000       0.07870000
C        1.00670000      -0.68450000      -1.06620000
C        1.50440000      -2.08550000      -0.92160000
C        0.20520000      -1.82930000      -1.69060000
O       -0.99290000      -2.12170000      -1.04180000
C       -1.33810000      -3.49760000      -1.05810000
C        0.20440000      -1.97340000      -3.12280000
C        0.19640000      -2.09400000      -4.32030000
H       -0.07920000       1.69580000      -0.83790000
H       -1.34910000       0.45040000      -0.64260000
H       -0.73420000       1.33740000       0.78210000
H        1.50790000      -0.02160000      -1.77340000
H        2.38530000      -2.39960000      -1.46820000
H        1.37010000      -2.52190000       0.06190000
H       -2.28120000      -3.58930000      -0.51550000
H       -1.47150000      -3.86580000      -2.08350000
H       -0.57260000      -4.10850000      -0.55980000
H        0.18780000      -2.19300000      -5.37750000
