20
Properties=species:S:1:pos:R:3 gdb_102824=T pbc="F F F"
C        0.43530000      -0.29380000       1.17070000
O       -0.17090000      -0.69850000      -0.03840000
C        0.58820000      -0.47010000      -1.20930000
C        1.73960000      -1.48730000      -1.37970000
C        2.96480000      -1.21840000      -0.53660000
O        3.56160000      -2.04390000       0.10510000
C       -0.37840000      -0.55380000      -2.37130000
C       -1.13380000       0.64330000      -2.79840000
N       -0.05430000       0.09990000      -3.64840000
H        1.30810000      -0.90690000       1.43290000
H        0.74620000       0.76190000       1.13350000
H       -0.31520000      -0.41060000       1.95600000
H        1.01500000       0.55120000      -1.18660000
H        1.38280000      -2.50450000      -1.19680000
H        2.07520000      -1.42690000      -2.42600000
H        3.31620000      -0.15840000      -0.57180000
H       -0.84350000      -1.53080000      -2.48500000
H       -2.13420000       0.53960000      -3.20710000
H       -0.95710000       1.57190000      -2.26150000
H        0.77960000       0.67520000      -3.54360000
