9
Properties=species:S:1:pos:R:3 gdb_133454=T pbc="F F F"
F       -0.00930000       0.12090000       0.22690000
C       -0.00420000       1.41950000       0.05310000
N       -1.14660000       2.00120000       0.01800000
O       -1.17510000       3.35750000      -0.16240000
N       -0.04420000       4.11460000      -0.30600000
C        1.09110000       3.51910000      -0.26890000
F        2.15530000       4.27040000      -0.40910000
C        1.30460000       2.07600000      -0.08370000
O        2.37840000       1.52100000      -0.04970000
