17
Properties=species:S:1:pos:R:3 gdb_53971=T pbc="F F F"
C        0.07240000       1.54370000       0.03980000
C       -0.02180000       0.00950000       0.09360000
N        0.72160000      -0.46970000       1.26740000
H        0.57270000       0.13650000       2.06760000
H        0.42620000      -1.40300000       1.54070000
H        2.10270000      -0.77740000      -0.02260000
C       -1.50220000      -0.45950000       0.05000000
C       -2.25630000       0.01240000       1.20680000
N       -2.81420000       0.39380000       2.14460000
C        0.67530000      -0.53720000      -1.18070000
O        1.95030000      -0.88390000      -0.98710000
O        0.12330000      -0.60410000      -2.24660000
H        1.11740000       1.86040000       0.09190000
H       -0.35740000       1.91610000      -0.89240000
H       -0.47150000       1.98900000       0.87880000
H       -1.96520000      -0.10990000      -0.87630000
H       -1.54510000      -1.55450000       0.02220000
