12
Properties=species:S:1:pos:R:3 gdb_132373=T pbc="F F F"
C       -0.00910000       1.47870000       0.01790000
C        0.01070000      -0.01720000       0.01370000
N        0.13950000      -0.63140000      -1.17230000
C        0.14190000      -1.94650000      -1.09670000
F        0.26520000      -2.59450000      -2.22800000
N        0.03550000      -2.70020000      -0.01380000
C       -0.08500000      -1.97240000       1.08180000
F       -0.19620000      -2.64210000       2.20150000
N       -0.10610000      -0.65580000       1.18510000
H        0.85860000       1.86410000      -0.52480000
H       -0.89850000       1.83470000      -0.51270000
H       -0.01760000       1.85890000       1.03870000
