18
Properties=species:S:1:pos:R:3 gdb_23211=T pbc="F F F"
O       -0.08860000       1.34650000       0.38370000
N       -0.02980000      -0.05570000       0.50880000
C       -1.08410000      -0.59600000       0.05840000
C       -2.40180000      -0.12460000      -0.53120000
C       -2.90540000      -1.60900000      -0.44430000
O       -3.43730000      -2.20420000      -1.59930000
C       -1.48460000      -2.02750000       0.00220000
C       -0.68220000      -3.17050000      -0.58410000
C       -1.04700000      -3.17270000       0.87230000
H        0.74930000       1.61930000       0.77240000
H       -2.94770000       0.62270000       0.04960000
H       -2.31450000       0.23610000      -1.56200000
H       -3.65860000      -1.75130000       0.33500000
H       -2.77680000      -2.13620000      -2.29800000
H       -1.21660000      -3.84860000      -1.24230000
H        0.34520000      -2.96360000      -0.86180000
H       -0.26790000      -2.96430000       1.59760000
H       -1.81400000      -3.86400000       1.20650000
