18
Properties=species:S:1:pos:R:3 gdb_80097=T pbc="F F F"
C        0.12050000       1.52710000      -0.07740000
C        0.03450000       0.01200000       0.03540000
O        0.54580000      -0.52610000      -1.21880000
C        0.85470000      -1.85970000      -1.22990000
N        1.21230000      -2.57470000      -0.25170000
C        1.35250000      -1.95460000       1.02300000
C        2.27110000      -0.73430000       1.16890000
O        3.06940000      -0.25370000       0.13900000
C        0.78060000      -0.55520000       1.22540000
H        1.16410000       1.84820000      -0.13170000
H       -0.40720000       1.87640000      -0.96890000
H       -0.33630000       1.99040000       0.80210000
H       -1.01720000      -0.29930000       0.09980000
H        0.78450000      -2.26530000      -2.23620000
H        1.33530000      -2.65760000       1.84880000
H        2.81050000      -0.66780000       2.10850000
H        2.53810000      -0.17140000      -0.66130000
H        0.32710000      -0.31060000       2.18250000
