15
Properties=species:S:1:pos:R:3 gdb_49537=T pbc="F F F"
O       -0.23920000      -0.03130000       0.19010000
C       -0.08750000       1.12370000      -0.11540000
C        1.19490000       1.90630000      -0.01430000
C        1.59200000       2.63470000       1.30970000
C        1.92880000       1.22420000       1.83370000
N        2.49150000       1.17340000       0.38990000
C        3.02930000       2.59050000       0.73140000
C        3.40570000       3.44240000      -0.38760000
N        3.71520000       4.14200000      -1.25420000
H       -0.92940000       1.72770000      -0.52440000
H        1.30840000       2.50170000      -0.92720000
H        1.09330000       3.47310000       1.80420000
H        2.70440000       1.14320000       2.59850000
H        1.12200000       0.51550000       1.99660000
H        3.84400000       2.55190000       1.45840000
