15
Properties=species:S:1:pos:R:3 gdb_24720=T pbc="F F F"
C        0.16350000       1.55140000      -0.00730000
O        1.55950000       1.44020000       0.33680000
C        1.48970000      -0.00400000       0.42500000
C       -0.03850000       0.02060000       0.04530000
N        0.33660000      -0.69930000      -1.18380000
C        0.18380000      -1.00190000      -2.51540000
C        1.48090000      -1.24140000      -2.93760000
N        2.41830000      -1.02430000      -1.94120000
C        1.67030000      -0.70390000      -0.91350000
H       -0.39000000       2.09030000       0.77000000
H       -0.00330000       2.02260000      -0.98130000
H        1.93420000      -0.39390000       1.33990000
H       -0.86050000      -0.40250000       0.61910000
H       -0.76560000      -1.09400000      -3.01480000
H        1.78770000      -1.58270000      -3.91570000
