13
Properties=species:S:1:pos:R:3 gdb_25261=T pbc="F F F"
O       -0.06380000      -0.04840000       0.00450000
C        0.03300000       1.14590000       0.01020000
O       -1.07090000       1.98460000       0.02860000
C       -0.70780000       3.38640000       0.03070000
C        0.78520000       3.34750000       0.01040000
C        1.17860000       2.04520000      -0.00140000
N        2.54910000       2.06820000      -0.02060000
C        2.89290000       3.39360000      -0.01820000
N        1.84470000       4.20430000       0.00040000
H       -1.15340000       3.86020000      -0.85030000
H       -1.12950000       3.85130000       0.92800000
H        3.17650000       1.28090000      -0.03340000
H        3.92510000       3.71180000      -0.03080000
