17
Properties=species:S:1:pos:R:3 gdb_74084=T pbc="F F F"
C        0.01210000       1.46940000       0.05290000
C        0.01200000      -0.02100000      -0.01540000
C        0.00870000      -0.78210000      -1.12520000
C       -0.00040000      -2.21520000      -0.78770000
O        0.00170000      -3.17190000      -1.52790000
C       -0.02880000      -2.28310000       0.73670000
C       -0.63110000      -3.43990000       1.41510000
O        0.78240000      -3.28400000       1.35190000
C        0.01130000      -0.85430000       1.25200000
H        0.88980000       1.83080000       0.60330000
H        0.01260000       1.92370000      -0.94030000
H       -0.86640000       1.83130000       0.60180000
H        0.01330000      -0.42100000      -2.14610000
H       -1.07850000      -3.30470000       2.39940000
H       -1.03510000      -4.24510000       0.80390000
H        0.91620000      -0.67900000       1.84660000
H       -0.84210000      -0.59990000       1.89270000
