17
Properties=species:S:1:pos:R:3 gdb_126949=T pbc="F F F"
C       -0.00590000       1.50760000      -0.08180000
C       -0.02480000      -0.01060000       0.04920000
N       -1.39980000      -0.50970000      -0.01120000
C       -1.58310000      -1.87230000       0.00580000
N       -0.63950000      -2.76390000      -0.07760000
N       -1.33530000      -3.96970000      -0.11360000
C       -2.69750000      -3.84240000      -0.04070000
O       -3.57200000      -4.68130000      -0.05410000
N       -2.83450000      -2.44370000       0.05910000
H        1.02280000       1.87670000      -0.05480000
H       -0.46440000       1.82590000      -1.02240000
H       -0.54890000       1.98640000       0.74170000
H        0.52440000      -0.47820000      -0.77270000
H        0.47500000      -0.32750000       0.97620000
H       -2.03630000      -0.01040000       0.59700000
H       -0.83430000      -4.83470000      -0.20100000
H       -3.72440000      -1.97940000       0.01120000
