25
Properties=species:S:1:pos:R:3 gdb_101668=T pbc="F F F"
C       -0.05980000       1.53810000       0.17580000
C       -0.05400000       0.01200000       0.01790000
C       -1.48420000      -0.52640000      -0.06620000
O       -2.15710000      -0.21730000       1.14670000
C        0.74640000      -0.46350000      -1.20800000
C        2.24050000      -0.09350000      -1.22870000
C        3.01980000      -0.67680000      -0.04280000
C        2.85940000      -0.54380000      -2.55400000
O        4.19050000      -0.05090000      -2.62350000
H        0.93890000       1.92990000       0.38770000
H       -0.42070000       2.02270000      -0.74030000
H       -0.72100000       1.82860000       0.99520000
H        0.38380000      -0.42850000       0.92270000
H       -1.99760000      -0.07280000      -0.93110000
H       -1.45910000      -1.61540000      -0.23380000
H       -3.07530000      -0.48800000       1.05950000
H        0.65890000      -1.55740000      -1.28340000
H        0.27010000      -0.05690000      -2.11230000
H        2.33790000       0.99940000      -1.20370000
H        2.88600000      -1.76460000       0.01350000
H        4.08660000      -0.47280000      -0.15730000
H        2.69120000      -0.25190000       0.90970000
H        2.84110000      -1.64550000      -2.61290000
H        2.25550000      -0.16040000      -3.39230000
H        4.59970000      -0.39910000      -3.42050000
