20
Properties=species:S:1:pos:R:3 gdb_22920=T pbc="F F F"
C       -0.17030000       1.45530000      -0.12520000
C        0.02760000      -0.04270000      -0.03300000
C       -1.22630000      -0.93160000       0.26700000
C       -0.46720000      -1.64170000       1.42670000
C        0.80230000      -0.80550000       1.12840000
C        1.75920000      -1.43640000       0.07470000
C        0.98620000      -0.70250000      -1.00450000
N        1.08100000      -0.55960000      -2.25910000
O        2.13850000      -1.33530000      -2.77740000
H        0.78770000       1.98410000      -0.16170000
H       -0.72570000       1.71440000      -1.03330000
H       -0.73590000       1.82930000       0.73530000
H       -2.07970000      -0.33840000       0.60600000
H       -1.55670000      -1.56340000      -0.56050000
H       -0.90050000      -1.44070000       2.40930000
H       -0.34260000      -2.72380000       1.32860000
H        1.27370000      -0.28160000       1.96030000
H        2.79810000      -1.09720000       0.14390000
H        1.76570000      -2.52900000       0.00860000
H        2.10550000      -1.11930000      -3.71530000
