22
Properties=species:S:1:pos:R:3 gdb_88622=T pbc="F F F"
C       -0.19720000       1.51260000      -0.12580000
C       -0.04010000       0.02200000       0.08210000
C        1.27540000      -0.65610000      -0.11040000
N        0.68310000      -0.55520000       1.21900000
C        1.31810000       0.29770000       2.18330000
C        0.70440000       0.53890000       3.53260000
C       -0.04310000      -0.70640000       4.02890000
C        1.26950000      -1.54000000       3.88250000
C        1.99940000      -0.28350000       3.39040000
H        0.73790000       2.05720000       0.02580000
H       -0.53280000       1.71120000      -1.14930000
H       -0.94670000       1.92910000       0.55610000
H       -0.93490000      -0.54770000      -0.16770000
H        1.34100000      -1.65540000      -0.53400000
H        2.12870000      -0.01520000      -0.33350000
H        1.84400000       1.17380000       1.79660000
H        0.56560000       1.54490000       3.91280000
H       -0.35950000      -0.61460000       5.07030000
H       -0.89420000      -1.02530000       3.42240000
H        1.64520000      -1.89160000       4.84580000
H        1.23890000      -2.37580000       3.17980000
H        3.01820000      -0.01070000       3.64180000
