13
Properties=species:S:1:pos:R:3 gdb_129203=T pbc="F F F"
N       -0.09330000       1.23920000       0.41940000
C        0.01110000       0.04730000      -0.01130000
N       -1.20730000      -0.60230000      -0.32420000
N       -1.60690000      -1.85680000      -0.14550000
C       -0.83280000      -2.86160000       0.08940000
C        0.63330000      -2.96250000       0.12910000
O        1.18360000      -4.01810000       0.38720000
C        1.50460000      -1.79280000      -0.24380000
N        1.24280000      -0.55000000      -0.29410000
H        0.83250000       1.66250000       0.47560000
H       -1.98150000       0.04960000      -0.33140000
H       -1.34180000      -3.81100000       0.23040000
H        2.52820000      -2.10220000      -0.46600000
