23
Properties=species:S:1:pos:R:3 gdb_118551=T pbc="F F F"
C       -0.05390000       1.62910000      -0.12910000
C        0.02740000       0.10640000       0.01520000
C       -1.35740000      -0.54890000       0.11050000
C       -1.35790000      -2.08910000       0.11810000
C       -0.67490000      -2.66390000       1.37260000
O       -0.55920000      -4.07760000       1.33780000
C       -2.80150000      -2.62640000      -0.01180000
C       -2.88030000      -4.11320000      -0.27200000
O       -3.42210000      -4.91100000       0.45490000
H        0.94250000       2.07660000      -0.19490000
H       -0.60720000       1.91280000      -1.03140000
H       -0.56600000       2.08180000       0.72730000
H        0.56730000      -0.31500000      -0.84300000
H        0.62570000      -0.13730000       0.90070000
H       -1.87510000      -0.18160000       1.00840000
H       -1.96090000      -0.20730000      -0.74090000
H       -0.78240000      -2.44190000      -0.74990000
H        0.34690000      -2.28010000       1.44460000
H       -1.21280000      -2.32490000       2.27200000
H       -1.38410000      -4.46700000       1.64440000
H       -3.38850000      -2.39860000       0.88520000
H       -3.28240000      -2.13080000      -0.86710000
H       -2.40430000      -4.44050000      -1.22400000
