16
Properties=species:S:1:pos:R:3 gdb_68650=T pbc="F F F"
O        0.09300000       1.38050000       0.04470000
C        0.02730000       0.00080000       0.05270000
C       -1.35400000      -0.72750000      -0.04240000
C       -0.65870000      -2.09610000      -0.03840000
O        0.25310000      -1.94380000      -1.21620000
C        0.67320000      -0.66040000      -1.16730000
N        1.42190000      -0.02880000      -1.96350000
C        0.20540000      -1.99920000       1.20780000
C        0.63080000      -0.73450000       1.25400000
H        0.63750000       1.61250000      -0.72520000
H       -1.98080000      -0.54790000       0.83090000
H       -1.89770000      -0.52070000      -0.96810000
H       -1.23720000      -2.99930000      -0.20910000
H        1.74490000      -0.60250000      -2.74190000
H        0.48200000      -2.83110000       1.84020000
H        1.33490000      -0.26770000       1.92940000
