25
Properties=species:S:1:pos:R:3 gdb_101617=T pbc="F F F"
C       -0.66400000       1.66400000      -0.08240000
O       -0.42180000       0.29600000       0.17110000
C       -1.57050000      -0.55710000       0.07020000
C       -1.97930000      -0.77490000      -1.38870000
C       -1.22590000      -1.88110000       0.75950000
C       -0.73290000      -1.79570000       2.22480000
C       -1.69220000      -0.98490000       3.11500000
C       -0.57130000      -3.21240000       2.78550000
O        0.56980000      -1.21590000       2.27160000
H        0.26030000       2.20120000       0.14340000
H       -0.92900000       1.85310000      -1.13110000
H       -1.46910000       2.05660000       0.55680000
H       -2.40370000      -0.07230000       0.60330000
H       -2.84300000      -1.44480000      -1.44270000
H       -2.25890000       0.16190000      -1.87870000
H       -1.15570000      -1.22630000      -1.95070000
H       -2.11930000      -2.51530000       0.71370000
H       -0.44410000      -2.38540000       0.17850000
H       -2.71140000      -1.38750000       3.09080000
H       -1.33730000      -1.00770000       4.14920000
H       -1.72940000       0.06300000       2.80280000
H        0.08300000      -3.80660000       2.14080000
H       -0.11380000      -3.16400000       3.77790000
H       -1.53660000      -3.72110000       2.87130000
H        0.54560000      -0.45960000       1.66930000
