14
Properties=species:S:1:pos:R:3 gdb_644=T pbc="F F F"
C       -0.35630000       1.43400000       0.01330000
O        1.02470000       1.03870000      -0.00230000
C        0.04050000       0.02520000       0.00180000
C       -0.14400000      -1.03000000       1.09550000
C       -0.74670000      -1.96060000      -0.00120000
C       -0.16540000      -1.01820000      -1.09950000
H       -0.69790000       1.89550000       0.93940000
H       -0.71590000       1.90540000      -0.90100000
H        0.82160000      -1.39200000       1.46110000
H       -0.77190000      -0.77180000       1.95160000
H       -0.40030000      -2.99500000      -0.01020000
H       -1.83900000      -1.95650000       0.00940000
H       -0.80980000      -0.75090000      -1.94020000
H        0.79290000      -1.37610000      -1.48770000
