15
Properties=species:S:1:pos:R:3 gdb_77651=T pbc="F F F"
O       -0.00460000       1.37360000       0.06610000
C       -0.07230000      -0.01270000       0.05450000
C       -1.36180000      -0.79590000       0.06170000
O       -1.67890000      -1.81500000       0.92350000
C       -2.37960000      -0.09060000      -0.81900000
O       -1.41200000       0.03720000      -1.90380000
C       -0.44950000      -0.77340000      -1.19800000
C        0.32650000      -1.72950000      -1.89380000
C        0.99340000      -2.55110000      -2.46740000
H       -0.35260000       1.66580000      -0.78850000
H        0.72400000      -0.47770000       0.63120000
H       -1.38890000      -1.57570000       1.81030000
H       -3.20570000      -0.74240000      -1.11910000
H       -2.75600000       0.88110000      -0.48220000
H        1.57840000      -3.27550000      -2.97790000
