27
Properties=species:S:1:pos:R:3 gdb_119142=T pbc="F F F"
C       -2.34960000       1.60640000       1.17450000
C       -2.32180000       0.07630000       1.24920000
C       -1.32220000      -0.53110000       0.25600000
C       -1.25050000      -2.05620000       0.16540000
C       -1.68030000      -2.91650000       1.33200000
C       -2.53160000      -2.85360000       0.08470000
C       -0.07950000      -2.60900000      -0.66070000
C       -0.11630000      -2.14170000      -2.12390000
C        1.28760000      -2.32140000      -0.02060000
H       -3.05550000       2.02800000       1.89690000
H       -1.36200000       2.03110000       1.38700000
H       -2.64760000       1.94950000       0.17750000
H       -2.06210000      -0.22730000       2.27010000
H       -3.33110000      -0.30900000       1.05950000
H       -1.54890000      -0.13530000      -0.74350000
H       -0.32610000      -0.14380000       0.50820000
H       -1.12020000      -3.82670000       1.52230000
H       -2.06290000      -2.44420000       2.22880000
H       -3.48110000      -2.33320000       0.14570000
H       -2.54960000      -3.72050000      -0.56850000
H       -0.20490000      -3.70080000      -0.66820000
H        0.07390000      -1.06650000      -2.21070000
H        0.65010000      -2.65570000      -2.71360000
H       -1.08910000      -2.34840000      -2.58180000
H        1.53110000      -1.25390000      -0.04090000
H        1.31400000      -2.65180000       1.02270000
H        2.08380000      -2.84450000      -0.56080000
