18
Properties=species:S:1:pos:R:3 gdb_65743=T pbc="F F F"
C        0.05800000       1.61230000      -0.10420000
C        0.00170000       0.08620000      -0.06470000
C       -1.42400000      -0.44520000       0.14890000
C       -2.02790000      -0.00240000       1.47190000
O       -3.12480000       0.48450000       1.57790000
C        0.80640000      -0.63670000      -1.19930000
N        1.70020000      -1.14280000      -0.15590000
C        1.04950000      -0.55510000       0.89610000
O        1.23210000      -0.55760000       2.08590000
H        1.07700000       1.96680000      -0.28640000
H       -0.58960000       2.00570000      -0.89520000
H       -0.27730000       2.03770000       0.84660000
H       -2.09220000      -0.12780000      -0.65860000
H       -1.40290000      -1.54470000       0.15940000
H       -1.37740000      -0.17180000       2.35550000
H        0.25590000      -1.41620000      -1.73580000
H        1.28830000       0.03440000      -1.91730000
H        2.51510000      -1.73720000      -0.19150000
