17
Properties=species:S:1:pos:R:3 gdb_19822=T pbc="F F F"
C       -0.03690000       1.57110000      -0.14060000
C        0.12240000       0.06580000      -0.06640000
O        1.17760000      -0.50560000      -0.90930000
C        1.56960000      -1.41820000       0.14760000
C        2.78720000      -0.98650000       0.98040000
C        2.87640000       0.47490000       1.05520000
N        1.89030000      -0.19420000       1.93950000
C        0.68310000      -0.68860000       1.15320000
H       -0.16690000       1.87710000      -1.18360000
H       -0.93730000       1.86480000       0.40950000
H        0.80710000       2.11800000       0.28060000
H       -0.83340000      -0.40100000      -0.35230000
H        1.48390000      -2.46910000      -0.13450000
H        3.55330000      -1.66020000       1.35100000
H        3.69440000       0.89450000       1.63310000
H        2.57040000       1.05890000       0.19780000
H       -0.01620000      -1.17270000       1.83310000
