20
Properties=species:S:1:pos:R:3 gdb_39835=T pbc="F F F"
C       -0.10220000       1.43880000      -0.06420000
C        1.28470000       0.85360000       0.04630000
C        1.89660000       0.59840000       1.40850000
C        1.14110000       0.90680000       2.64970000
N        1.14570000      -0.46610000       2.10980000
C        0.00560000      -0.81330000       1.25180000
C       -0.42600000      -2.25440000       1.27640000
C       -1.28890000      -1.19180000       1.92120000
C        0.08010000      -0.05940000      -0.05940000
H       -0.55600000       1.92820000       0.78930000
H       -0.36080000       1.89540000      -1.01450000
H        1.97040000       0.98550000      -0.78210000
H        2.98050000       0.52870000       1.44420000
H        1.67130000       1.01580000       3.59260000
H        0.22990000       1.49300000       2.58570000
H       -0.76940000      -2.70620000       0.35140000
H        0.13100000      -2.91370000       1.93170000
H       -1.31700000      -1.15710000       3.00480000
H       -2.21640000      -0.91090000       1.43400000
H       -0.13690000      -0.60730000      -0.97040000
