17
Properties=species:S:1:pos:R:3 gdb_30223=T pbc="F F F"
N       -0.06900000       1.47360000      -0.13530000
C       -0.07430000       0.06940000      -0.14650000
C       -1.08370000      -0.85190000       0.12580000
C       -0.59820000      -2.17620000      -0.12410000
C        0.69140000      -2.01090000      -0.57010000
C        2.13530000      -2.40290000      -0.84010000
O        2.44440000      -3.11050000      -2.01310000
C        2.42280000      -0.83810000      -0.82530000
N        0.97560000      -0.66500000      -0.60910000
H        0.68630000       1.85770000       0.42350000
H       -0.94340000       1.83170000       0.22770000
H       -2.08220000      -0.59210000       0.44770000
H       -1.14460000      -3.09520000       0.01910000
H        2.64630000      -2.93090000      -0.03000000
H        1.80980000      -2.84120000      -2.68700000
H        3.04630000      -0.48630000       0.00290000
H        2.78800000      -0.42870000      -1.77140000
