18
Properties=species:S:1:pos:R:3 gdb_91471=T pbc="F F F"
C       -0.10780000       1.51130000      -0.04940000
C        0.06450000       0.00650000       0.03930000
O        0.94350000      -0.49760000      -0.99470000
C        1.91730000      -1.23890000      -0.24710000
C        1.06890000      -2.02080000       0.78450000
C        0.80470000      -0.55680000       1.28630000
C        2.30030000      -0.27580000       0.90120000
C        0.25470000      -0.25970000       2.58570000
N       -0.18930000      -0.01960000       3.62630000
H        0.83800000       2.04140000       0.08760000
H       -0.50490000       1.77640000      -1.03320000
H       -0.81590000       1.85530000       0.71100000
H       -0.91480000      -0.47990000      -0.05720000
H        2.63570000      -1.70010000      -0.92080000
H        0.21270000      -2.58590000       0.41170000
H        1.65710000      -2.60510000       1.49220000
H        2.99300000      -0.70550000       1.62490000
H        2.58420000       0.74320000       0.63780000
