15
Properties=species:S:1:pos:R:3 gdb_44596=T pbc="F F F"
O        0.19140000       0.11680000       0.49230000
C        0.17810000       1.19300000      -0.01280000
O       -0.95160000       2.01690000      -0.00020000
C       -0.74280000       3.15320000      -0.84990000
C        0.35440000       4.26850000      -0.75470000
C        1.50820000       4.31300000       0.25010000
C        1.84350000       2.83600000       0.36660000
C        1.21650000       2.11910000      -0.58840000
C        0.52620000       3.02260000      -1.58950000
H       -1.67860000       3.45560000      -1.30400000
H        0.03050000       5.19730000      -1.21670000
H        2.32050000       4.96210000      -0.10650000
H        1.22190000       4.68540000       1.24160000
H        2.21290000       2.40360000       1.29110000
H        0.66660000       2.93520000      -2.66070000
