20
Properties=species:S:1:pos:R:3 gdb_8319=T pbc="F F F"
O       -0.02880000       1.41680000      -0.00730000
C        0.01950000       0.00120000       0.09500000
C       -1.38960000      -0.53520000      -0.12580000
C       -1.46960000      -2.05340000      -0.04850000
C       -1.27240000      -2.75820000       1.32750000
C       -2.38380000      -3.74890000       0.93340000
O       -3.24450000      -4.09730000       1.99280000
C       -2.86690000      -2.73080000      -0.13650000
H        0.85390000       1.76050000       0.15790000
H        0.70220000      -0.42940000      -0.65680000
H        0.38730000      -0.31410000       1.08480000
H       -2.05480000      -0.08760000       0.62320000
H       -1.74250000      -0.18910000      -1.10560000
H       -0.79610000      -2.49750000      -0.79160000
H       -0.28930000      -3.16000000       1.58300000
H       -1.62590000      -2.12400000       2.14710000
H       -1.96040000      -4.64450000       0.45520000
H       -3.90260000      -4.71480000       1.65820000
H       -3.64260000      -2.08750000       0.29170000
H       -3.20310000      -3.10760000      -1.10620000
