19
Properties=species:S:1:pos:R:3 gdb_86604=T pbc="F F F"
O        0.40920000       1.46100000       0.07530000
C        0.14970000       0.09150000       0.05010000
C       -1.31340000      -0.46980000       0.14510000
C       -0.96750000      -1.54940000      -0.94110000
C       -1.95910000      -1.91220000      -2.00810000
C       -1.81030000      -3.19710000      -2.78380000
C       -2.93630000      -3.04420000      -1.79410000
C        0.19030000      -0.60530000      -1.31110000
O        0.66200000      -0.23720000      -2.35250000
H        0.55180000       1.73590000      -0.83980000
H        0.78340000      -0.42080000       0.78610000
H       -1.63430000      -0.83210000       1.12160000
H       -2.02970000       0.26180000      -0.23710000
H       -0.57580000      -2.45050000      -0.45390000
H       -2.32950000      -1.06000000      -2.57140000
H       -2.04440000      -3.18340000      -3.84200000
H       -0.98750000      -3.85410000      -2.52190000
H       -2.87440000      -3.59800000      -0.86290000
H       -3.94560000      -2.92710000      -2.17250000
