16
Properties=species:S:1:pos:R:3 gdb_8823=T pbc="F F F"
C       -0.23770000       1.39990000       0.10690000
N       -0.21840000      -0.02240000       0.39090000
C        0.86830000      -0.65550000       0.88780000
O        1.93240000      -0.11460000       1.13580000
C        0.74140000      -2.20230000       1.07410000
N        1.64390000      -2.70670000       2.11180000
C       -0.63080000      -2.65030000       1.29220000
C       -1.77050000      -2.99000000       1.47140000
H        0.76880000       1.78320000       0.27770000
H       -0.52420000       1.58870000      -0.93310000
H       -0.93640000       1.92930000       0.76450000
H       -1.06790000      -0.55770000       0.29940000
H        1.08340000      -2.61790000       0.11310000
H        2.48910000      -2.14000000       2.04290000
H        1.24400000      -2.48630000       3.02080000
H       -2.76910000      -3.31350000       1.63500000
