17
Properties=species:S:1:pos:R:3 gdb_21026=T pbc="F F F"
C       -0.04630000       1.41440000       0.00990000
N       -0.06010000      -0.03200000       0.00220000
N       -0.02600000      -0.73380000      -1.12590000
C        0.03460000      -2.00350000      -0.71500000
C        0.07300000      -3.14790000      -1.67410000
C        0.04150000      -2.01110000       0.69690000
C        0.08940000      -3.16590000       1.64300000
N       -0.01480000      -0.74610000       1.12210000
H        0.97960000       1.79750000       0.00560000
H       -0.56650000       1.76900000      -0.88000000
H       -0.55520000       1.75910000       0.91030000
H        0.97300000      -3.75760000      -1.53570000
H       -0.78870000      -3.81240000      -1.54320000
H        0.06540000      -2.77670000      -2.70080000
H        0.98810000      -3.77390000       1.48940000
H        0.09150000      -2.80590000       2.67380000
H       -0.77350000      -3.82920000       1.51320000
