18
Properties=species:S:1:pos:R:3 gdb_75442=T pbc="F F F"
C        0.07370000       1.50390000       0.04710000
C        0.01050000       0.01370000      -0.11240000
N        0.08620000      -0.55030000      -1.24330000
C        0.05330000      -2.00590000      -1.31390000
C        0.42050000      -2.67860000       0.00920000
C       -0.36510000      -1.99910000       1.13850000
O       -0.12610000      -0.57950000       1.11770000
C       -1.80120000      -2.27590000       1.06980000
C       -2.97580000      -2.52160000       1.00940000
H        0.88730000       1.77830000       0.72610000
H        0.23140000       1.96740000      -0.92580000
H       -0.85570000       1.87670000       0.48940000
H       -0.95030000      -2.31830000      -1.63040000
H        0.73950000      -2.32370000      -2.10620000
H        0.20460000      -3.75040000      -0.00460000
H        1.48820000      -2.54900000       0.21660000
H        0.01110000      -2.32420000       2.11390000
H       -4.01590000      -2.73210000       0.96160000
