19
Properties=species:S:1:pos:R:3 gdb_41830=T pbc="F F F"
C       -0.01090000       1.51470000       0.17320000
C        1.39500000       2.12020000      -0.03070000
C        2.16630000       1.33960000      -1.10340000
O        2.41670000       0.01140000      -0.59850000
C        1.24450000      -0.70970000      -0.38770000
C       -0.02020000       0.00210000      -0.01690000
C        0.14920000      -0.58620000      -1.43830000
C        0.47350000       0.32220000      -2.55580000
C        1.42650000       1.24950000      -2.41750000
H       -0.37410000       1.75830000       1.17640000
H       -0.71380000       1.97290000      -0.53150000
H        1.31890000       3.17730000      -0.30680000
H        1.97740000       2.06210000       0.89600000
H        3.16080000       1.77100000      -1.24570000
H        1.47410000      -1.68340000       0.02970000
H       -0.71260000      -0.54910000       0.61160000
H       -0.44300000      -1.46470000      -1.66830000
H       -0.05670000       0.19480000      -3.49490000
H        1.70240000       1.91830000      -3.22550000
