15
Properties=species:S:1:pos:R:3 gdb_75767=T pbc="F F F"
C       -0.14540000       1.55340000       0.17390000
C       -0.00930000       0.04010000       0.12200000
O        1.16030000      -0.35170000      -0.71010000
C        1.87890000      -0.78350000       0.37220000
O        3.02270000      -1.10380000       0.41250000
C        0.71390000      -0.61480000       1.36140000
O        0.90040000       0.09420000       2.54040000
C       -1.21440000      -0.62850000      -0.32640000
C       -2.22500000      -1.18280000      -0.66570000
H        0.79800000       2.01590000       0.47750000
H       -0.41920000       1.94110000      -0.80980000
H       -0.92050000       1.83120000       0.89240000
H        0.25550000      -1.57320000       1.61630000
H        1.59220000       0.75230000       2.41480000
H       -3.11570000      -1.67280000      -0.97490000
