20
Properties=species:S:1:pos:R:3 gdb_100282=T pbc="F F F"
C        0.08620000       1.36770000       0.12020000
O       -0.03370000      -0.04650000       0.01270000
C       -1.36710000      -0.58680000       0.02930000
C       -1.18010000      -2.10870000       0.02620000
C       -2.12560000      -0.13280000       1.28910000
O       -1.40720000      -0.45880000       2.46450000
C       -2.16240000      -0.19100000      -1.23320000
N       -1.39680000       0.00600000      -2.33960000
O       -3.37620000      -0.10910000      -1.22860000
H        1.13970000       1.59810000      -0.05580000
H       -0.52170000       1.89330000      -0.62660000
H       -0.18830000       1.73420000       1.11740000
H       -0.74450000      -2.42530000       0.97590000
H       -2.14710000      -2.60190000      -0.09990000
H       -0.51940000      -2.41080000      -0.79000000
H       -2.33930000       0.94420000       1.23080000
H       -3.08840000      -0.64380000       1.33070000
H       -0.47750000      -0.27400000       2.28670000
H       -0.39860000      -0.10780000      -2.29710000
H       -1.85070000       0.18620000      -3.21950000
