17
Properties=species:S:1:pos:R:3 gdb_76013=T pbc="F F F"
C       -0.11710000       1.55120000      -0.03780000
C        0.02490000       0.04890000       0.03640000
C        1.34980000      -0.65530000      -0.20790000
C        2.54670000       0.10670000      -0.42380000
N        3.50630000       0.72980000      -0.59540000
C        0.71180000      -0.65000000       1.19980000
C        1.35800000       0.12050000       2.34060000
C        0.13940000      -1.91580000       1.59490000
N       -0.32410000      -2.92520000       1.91760000
H        0.78760000       2.07360000       0.27810000
H       -0.32750000       1.85260000      -1.06850000
H       -0.94860000       1.88940000       0.58790000
H       -0.82140000      -0.49930000      -0.36610000
H        1.31970000      -1.59580000      -0.74650000
H        1.87330000       1.01080000       1.97900000
H        0.60120000       0.42420000       3.06910000
H        2.09240000      -0.50700000       2.85220000
