24
Properties=species:S:1:pos:R:3 gdb_118402=T pbc="F F F"
C        0.98630000       2.16370000      -0.48210000
C        0.90490000       0.63890000      -0.37110000
C        0.83290000       0.16400000       1.07890000
C        0.75100000      -1.33680000       1.25990000
O        0.85520000      -1.60070000       2.60490000
C        0.25920000      -2.74590000       3.19810000
N        0.63290000      -2.10800000       0.26850000
C        0.65910000      -3.55720000       0.25540000
C       -0.69120000      -4.12900000      -0.18780000
H        1.87250000       2.55620000       0.02970000
H        1.04020000       2.48110000      -1.52810000
H        0.10920000       2.64530000      -0.03460000
H        0.03140000       0.26450000      -0.91410000
H        1.77220000       0.17840000      -0.85640000
H        1.70600000       0.51350000       1.64600000
H       -0.03190000       0.61040000       1.58950000
H       -0.01910000      -2.45670000       4.21560000
H       -0.64060000      -3.05700000       2.65900000
H        0.95880000      -3.58660000       3.25390000
H        1.41300000      -3.84300000      -0.48980000
H        0.97340000      -4.02220000       1.19700000
H       -0.62550000      -5.21290000      -0.32550000
H       -1.47200000      -3.92570000       0.55290000
H       -1.00250000      -3.67420000      -1.13230000
