18
Properties=species:S:1:pos:R:3 gdb_49618=T pbc="F F F"
O       -0.82630000       0.84270000       0.69010000
C       -0.10520000       1.34920000      -0.13680000
C        1.21930000       1.99010000       0.09490000
C        1.55880000       2.82320000       1.28960000
C        0.92300000       2.31560000       2.58600000
C        1.66010000       1.00810000       2.28130000
C        2.48890000       0.18580000       3.21830000
C        1.30540000      -0.42190000       2.49360000
N        2.29530000       1.54060000       1.04200000
H       -0.41680000       1.39030000      -1.20540000
H        1.68060000       2.32990000      -0.82920000
H        2.03550000       3.78900000       1.15320000
H        1.30530000       2.83450000       3.46790000
H       -0.16680000       2.28250000       2.61340000
H        3.48410000      -0.08660000       2.88410000
H        2.40140000       0.38410000       4.28170000
H        0.40160000      -0.63920000       3.05160000
H        1.50860000      -1.11170000       1.68160000
