19
Properties=species:S:1:pos:R:3 gdb_87595=T pbc="F F F"
C       -0.02280000       1.53900000      -0.17040000
C       -0.01180000       0.04700000       0.04580000
O        1.24960000      -0.62030000      -0.05830000
C        0.57880000      -0.62290000       1.22030000
C        1.23830000       0.04870000       2.37710000
C        1.25200000      -0.75510000       3.44700000
C        0.56060000      -2.05020000       3.18350000
C       -0.91990000      -1.93590000       2.86220000
C        0.09090000      -1.95510000       1.74370000
H        0.81290000       2.02320000       0.33930000
H        0.05480000       1.76660000      -1.23890000
H       -0.95870000       1.97340000       0.19740000
H       -0.82900000      -0.48640000      -0.44640000
H        1.62950000       1.05650000       2.33190000
H        1.67110000      -0.50100000       4.41390000
H        0.93430000      -2.97000000       3.61850000
H       -1.53080000      -2.82470000       2.98500000
H       -1.41880000      -1.00340000       3.10560000
H        0.12370000      -2.80120000       1.06860000
