19
Properties=species:S:1:pos:R:3 gdb_36287=T pbc="F F F"
C       -0.82610000       1.19150000      -2.50850000
C       -0.43230000       1.18930000      -1.37280000
C        0.07360000       1.20630000      -0.00350000
C        1.44250000       1.89070000       0.09720000
C        1.49910000       3.44850000      -0.08030000
C        1.08570000       3.55870000       1.42350000
C        1.97770000       2.29660000       1.50140000
O        3.28650000       2.80450000       1.19700000
C        3.01150000       3.65620000       0.05470000
H       -1.18400000       1.18510000      -3.50810000
H       -0.66580000       1.68770000       0.64570000
H        0.16620000       0.17470000       0.36120000
H        2.16690000       1.33140000      -0.50250000
H        0.97820000       3.96630000      -0.88420000
H        1.42470000       4.43120000       1.98670000
H        0.02610000       3.38090000       1.60250000
H        2.03340000       1.62600000       2.35830000
H        3.58050000       3.31050000      -0.81600000
H        3.29580000       4.69050000       0.28110000
