21
Properties=species:S:1:pos:R:3 gdb_80380=T pbc="F F F"
C       -0.21550000       1.59690000       0.00430000
C       -0.01970000       0.08000000      -0.00430000
C       -1.34200000      -0.63540000      -0.29730000
C        1.13560000      -0.50560000      -0.89490000
C        1.71190000      -1.24310000       0.32120000
C        2.11380000      -0.24740000       1.37720000
O        2.64540000       1.01970000       1.09700000
C        0.66250000      -0.56570000       1.22480000
O       -0.05310000      -1.14400000       2.26440000
H        0.72450000       2.11740000       0.19100000
H       -0.62200000       1.93860000      -0.95500000
H       -0.93200000       1.89030000       0.78130000
H       -1.73270000      -0.32450000      -1.27250000
H       -1.21720000      -1.72250000      -0.30660000
H       -2.09270000      -0.39860000       0.46320000
H        0.77010000      -1.17070000      -1.67990000
H        1.80420000       0.23710000      -1.33890000
H        2.08500000      -2.26050000       0.32920000
H        2.53240000      -0.71870000       2.26860000
H        3.52370000       0.89530000       0.72120000
H       -0.11510000      -0.50380000       2.98170000
