18
Properties=species:S:1:pos:R:3 gdb_82330=T pbc="F F F"
O        0.49770000       0.85040000      -0.66880000
C        0.10090000      -0.34940000      -0.03570000
C        0.58420000      -0.45130000       1.39960000
N       -0.10140000       0.56620000       2.23460000
C       -0.53720000      -0.84960000       2.28220000
C       -1.77420000      -1.12120000       1.44980000
C       -1.43260000      -0.53330000       0.07920000
C       -2.35500000       0.29910000      -0.69890000
O       -2.10950000      -1.06620000      -1.05740000
H        0.27220000       1.55500000      -0.04690000
H        0.50770000      -1.16280000      -0.64620000
H        1.61820000      -0.70110000       1.61000000
H        0.46890000       0.76940000       3.05130000
H       -0.36510000      -1.41050000       3.19490000
H       -1.93040000      -2.20210000       1.35370000
H       -2.68200000      -0.68690000       1.87870000
H       -3.34900000       0.50760000      -0.30410000
H       -1.94950000       1.03710000      -1.38690000
