15
Properties=species:S:1:pos:R:3 gdb_2078=T pbc="F F F"
O       -0.00860000      -0.07240000       0.06220000
C       -0.01790000       1.14410000       0.04020000
C       -1.32760000       1.93060000       0.04190000
N       -1.15480000       3.32250000       0.44730000
C       -0.10730000       3.96910000      -0.33160000
C        1.22280000       3.33290000       0.05720000
N        1.12610000       1.88400000      -0.05680000
H       -1.74850000       1.81600000      -0.97520000
H       -2.00420000       1.41780000       0.72960000
H       -2.03200000       3.82150000       0.35320000
H       -0.25360000       3.87070000      -1.42400000
H       -0.08070000       5.03590000      -0.09200000
H        2.01990000       3.69160000      -0.60350000
H        1.47540000       3.62720000       1.08520000
H        1.97310000       1.33570000      -0.01200000
