21
Properties=species:S:1:pos:R:3 gdb_63380=T pbc="F F F"
C       -0.42550000       1.43030000       0.89570000
C        0.14580000       0.09900000       0.43130000
C       -0.65790000      -1.08670000       0.95340000
C        0.54120000       0.00590000      -1.06340000
C        1.98530000      -0.24180000      -0.54130000
C        3.04550000       0.77690000      -0.95050000
O        1.54830000      -0.02300000       0.82870000
C        2.46860000      -1.60900000      -0.73880000
C        2.87030000      -2.72900000      -0.91310000
H        0.17680000       2.26470000       0.52580000
H       -1.45290000       1.55710000       0.53720000
H       -0.43760000       1.47800000       1.98960000
H       -1.69230000      -1.04260000       0.59500000
H       -0.21380000      -2.02920000       0.62250000
H       -0.67270000      -1.08120000       2.04800000
H        0.09530000      -0.81250000      -1.62850000
H        0.43700000       0.93900000      -1.62080000
H        2.66610000       1.79100000      -0.79960000
H        3.94530000       0.64560000      -0.34320000
H        3.31570000       0.64800000      -2.00310000
H        3.22380000      -3.71980000      -1.05870000
