17
Properties=species:S:1:pos:R:3 gdb_9695=T pbc="F F F"
C       -0.04350000       1.57130000       0.00990000
C       -0.00540000       0.02850000       0.00260000
C        0.87540000      -0.48410000      -1.18990000
C        2.20630000      -0.76340000      -0.53990000
C        2.12900000      -0.77150000       0.78850000
C        0.73140000      -0.49920000       1.28290000
C       -1.37280000      -0.48960000      -0.08020000
N       -2.45350000      -0.89550000      -0.14590000
H        0.97870000       1.95630000       0.07170000
H       -0.50690000       1.95620000      -0.90250000
H       -0.60990000       1.94540000       0.86700000
H        0.45580000      -1.39270000      -1.63910000
H        0.92710000       0.26360000      -1.98890000
H        3.10000000      -0.96380000      -1.11960000
H        2.94950000      -0.97950000       1.46560000
H        0.68940000       0.23870000       2.09160000
H        0.26310000      -1.41290000       1.66930000
