17
Properties=species:S:1:pos:R:3 gdb_33399=T pbc="F F F"
N       -0.12860000      -1.15310000      -0.00270000
C       -0.00240000      -0.00550000      -0.01480000
C        0.09910000       1.46040000      -0.05160000
C        1.50330000       1.89040000      -0.11810000
N        2.59090000       2.27100000      -0.18930000
C       -0.71890000       2.04660000      -1.22640000
C       -2.26130000       1.88380000      -1.19250000
C       -2.37280000       3.33280000      -1.74310000
C       -0.90940000       3.58500000      -1.28470000
H       -0.31920000       1.84380000       0.88900000
H       -0.30350000       1.66570000      -2.16290000
H       -2.69300000       1.07010000      -1.77720000
H       -2.63550000       1.81180000      -0.16610000
H       -2.46520000       3.34730000      -2.83190000
H       -3.14850000       3.97220000      -1.31870000
H       -0.87050000       4.03290000      -0.28630000
H       -0.24720000       4.14820000      -1.94380000
