18
Properties=species:S:1:pos:R:3 gdb_22427=T pbc="F F F"
C       -0.03010000       1.58120000      -0.01430000
C       -0.06130000       0.08220000       0.04620000
C        1.14020000      -0.79010000      -0.33860000
C        0.56700000      -0.92580000       1.03520000
O        1.26730000      -0.61180000       2.18190000
C       -0.70290000      -1.80010000       1.00960000
C       -1.27440000      -0.78370000       0.02410000
N       -2.40100000      -0.58160000      -0.51900000
O       -3.30190000      -1.62310000      -0.20900000
H        0.93210000       1.95990000       0.34340000
H       -0.17730000       1.94060000      -1.03820000
H       -0.82040000       2.01270000       0.60760000
H        1.05050000      -1.58110000      -1.07910000
H        2.06820000      -0.22720000      -0.38400000
H        2.02150000      -1.20700000       2.25490000
H       -0.60560000      -2.83920000       0.67950000
H       -1.24890000      -1.77060000       1.95700000
H       -4.10290000      -1.33480000      -0.65910000
