18
Properties=species:S:1:pos:R:3 gdb_69584=T pbc="F F F"
C       -0.10570000       1.53010000       0.05500000
C        0.13060000       0.04840000      -0.00840000
O       -0.68450000      -0.77230000       0.87090000
C        0.73880000      -0.78000000       1.04840000
C        1.44570000      -1.92960000       0.37440000
C        2.73370000      -2.45440000       0.91300000
N        1.52570000      -3.28370000       0.95600000
C        1.13730000      -1.76970000      -1.07770000
C        0.43510000      -0.65600000      -1.30290000
H        0.74600000       2.07750000      -0.36230000
H       -0.99550000       1.80280000      -0.52320000
H       -0.26070000       1.85110000       1.08770000
H        1.09810000      -0.38690000       1.99750000
H        3.50380000      -2.79900000       0.22840000
H        3.10930000      -2.01140000       1.83330000
H        1.11830000      -3.27950000       1.88820000
H        1.43180000      -2.51150000      -1.81010000
H        0.08600000      -0.30060000      -2.26490000
