18
Properties=species:S:1:pos:R:3 gdb_7463=T pbc="F F F"
C        0.05690000       1.52590000      -0.09010000
C        0.04000000       0.07050000      -0.04980000
C        0.02400000      -1.13380000      -0.01530000
C        0.00710000      -2.58560000       0.02330000
C        0.93670000      -3.20170000      -1.03070000
C        0.15920000      -3.25270000       1.42540000
O       -1.03350000      -4.03340000       1.23130000
C       -1.39400000      -3.27070000       0.06610000
H        1.08200000       1.91150000      -0.12140000
H       -0.46540000       1.90490000      -0.97560000
H       -0.43200000       1.95550000       0.79130000
H        1.97010000      -2.87980000      -0.87100000
H        0.89940000      -4.29410000      -0.97380000
H        0.63760000      -2.89500000      -2.03740000
H        1.04820000      -3.87830000       1.56690000
H        0.06340000      -2.55130000       2.26320000
H       -2.22070000      -2.57760000       0.26410000
H       -1.64370000      -3.90940000      -0.78910000
