18
Properties=species:S:1:pos:R:3 gdb_84763=T pbc="F F F"
C        0.35810000       1.40590000      -0.07960000
C       -0.01040000      -0.09010000      -0.02190000
C        0.61480000      -0.85330000      -1.23790000
C        1.85920000      -1.47620000      -0.65960000
C        1.87400000      -1.44550000       0.67000000
C        0.64560000      -0.78760000       1.24820000
O        0.89070000       0.07400000       2.33930000
C       -1.46680000      -0.22920000       0.00490000
N       -2.61700000      -0.34590000       0.02530000
H        1.44410000       1.51760000      -0.16480000
H       -0.10050000       1.87480000      -0.95350000
H        0.01680000       1.92620000       0.81660000
H       -0.06790000      -1.62390000      -1.61530000
H        0.81660000      -0.17810000      -2.07670000
H        2.61840000      -1.93050000      -1.28640000
H        2.63740000      -1.86570000       1.31480000
H       -0.04890000      -1.53670000       1.64550000
H        1.64670000       0.62970000       2.12080000
