13
Properties=species:S:1:pos:R:3 gdb_8608=T pbc="F F F"
N       -0.05130000       1.48070000       0.06410000
C       -0.00440000      -0.00110000       0.01100000
C       -1.39070000      -0.50790000       0.02040000
C       -2.52090000      -0.90990000       0.00830000
C        0.68480000      -0.50630000      -1.20050000
C        1.25260000      -0.85520000      -2.20000000
C        0.71300000      -0.48390000       1.20720000
C        1.31460000      -0.86620000       2.17210000
H        0.90540000       1.82440000       0.02400000
H       -0.51730000       1.80820000      -0.77880000
H       -3.52000000      -1.27080000       0.00570000
H        1.75250000      -1.17850000      -3.07970000
H        1.83970000      -1.20980000       3.02920000
