17
Properties=species:S:1:pos:R:3 gdb_55938=T pbc="F F F"
N       -0.11480000       1.37170000       0.08720000
C        0.05620000      -0.00420000      -0.01310000
O        1.15370000      -0.52960000      -0.05190000
N       -1.12570000      -0.71150000      -0.04030000
C       -1.13850000      -2.14460000       0.04550000
C       -1.51590000      -2.84220000       1.41800000
C       -2.72420000      -3.45280000       0.70620000
O       -3.50160000      -2.35840000       0.19370000
C       -2.37440000      -2.81310000      -0.57230000
H        0.73050000       1.87890000      -0.12690000
H       -0.94680000       1.77250000      -0.31980000
H       -1.98190000      -0.25230000       0.23140000
H       -0.18950000      -2.51250000      -0.34250000
H       -0.76480000      -3.57220000       1.72750000
H       -1.75290000      -2.17720000       2.25170000
H       -3.24840000      -4.38040000       0.89950000
H       -2.56080000      -3.10310000      -1.60010000
