16
Properties=species:S:1:pos:R:3 gdb_133105=T pbc="F F F"
C        0.04890000       1.56760000      -0.09100000
C        0.00160000       0.03940000       0.08370000
C       -1.39830000      -0.51510000       0.07170000
C       -2.05010000      -1.00540000       1.19800000
N       -3.29950000      -1.48750000       1.18970000
C       -3.91070000      -1.47890000       0.01100000
N       -3.40270000      -1.04310000      -1.14850000
C       -2.17880000      -0.57910000      -1.08620000
F       -1.65250000      -0.14240000      -2.22700000
H        1.08320000       1.92310000      -0.07470000
H       -0.39720000       1.86310000      -1.04430000
H       -0.49780000       2.07200000       0.71160000
H        0.58270000      -0.43170000      -0.71710000
H        0.48080000      -0.24070000       1.02800000
H       -1.53490000      -1.01190000       2.15700000
H       -4.92570000      -1.86490000      -0.02430000
