19
Properties=species:S:1:pos:R:3 gdb_90422=T pbc="F F F"
C        0.33220000       1.53580000      -0.22200000
C        0.09790000       0.06650000       0.05480000
O        0.86790000      -0.82560000      -0.79740000
C        1.28580000      -1.62950000       0.32410000
C        2.72590000      -1.29300000       0.79770000
C        3.81980000      -0.96700000      -0.20710000
C        2.10560000      -0.16650000       1.65410000
O        2.56710000       0.72230000       2.31010000
C        0.66620000      -0.61230000       1.32980000
H        1.38020000       1.81310000      -0.08500000
H        0.04020000       1.77030000      -1.25040000
H       -0.27620000       2.14680000       0.45310000
H       -0.97040000      -0.16910000      -0.05130000
H        0.99310000      -2.67690000       0.22890000
H        3.05190000      -2.07500000       1.50030000
H        3.42720000      -0.31500000      -0.99120000
H        4.65110000      -0.45740000       0.28880000
H        4.20810000      -1.87390000      -0.68050000
H       -0.01140000      -0.83050000       2.15380000
