19
Properties=species:S:1:pos:R:3 gdb_64610=T pbc="F F F"
C       -0.11120000       1.60120000       0.02440000
C        0.00120000       0.05920000       0.01390000
C        0.81730000      -0.46180000      -1.17320000
C        1.80100000      -1.28010000      -0.79850000
C        1.88560000      -1.40880000       0.68450000
C        2.23130000      -0.11860000       1.40480000
C        0.78820000      -0.50910000       1.21820000
C       -1.34750000      -0.51910000      -0.02260000
C       -2.45550000      -0.98590000      -0.05230000
H        0.88140000       2.05760000       0.05210000
H       -0.63110000       1.95480000      -0.87070000
H       -0.67650000       1.93750000       0.89800000
H        0.58310000      -0.16050000      -2.18750000
H        2.49600000      -1.76890000      -1.47210000
H        2.13880000      -2.35880000       1.14150000
H        2.62170000      -0.19250000       2.41490000
H        2.65480000       0.68700000       0.81480000
H        0.21750000      -0.78470000       2.09600000
H       -3.43100000      -1.40390000      -0.08220000
