21
Properties=species:S:1:pos:R:3 gdb_48205=T pbc="F F F"
O        0.07430000      -0.01800000       0.24330000
C        0.08220000       1.18250000       0.15370000
C        1.32020000       2.03460000      -0.07460000
C        1.17540000       2.78840000      -1.38900000
C        2.38800000       3.11460000      -2.22360000
C        1.40020000       2.08040000      -2.70250000
C        1.51010000       2.97140000       1.11010000
C        2.08380000       2.45420000       2.40650000
C        2.89240000       3.38990000       1.54300000
H       -0.86410000       1.76970000       0.23700000
H        2.16920000       1.34380000      -0.13770000
H        0.38860000       3.53940000      -1.38160000
H        2.41960000       4.07320000      -2.72950000
H        3.35350000       2.76820000      -1.87090000
H        1.69920000       1.03800000      -2.66670000
H        0.75600000       2.32820000      -3.53860000
H        0.73480000       3.72880000       1.20130000
H        1.67610000       2.83150000       3.33750000
H        2.38250000       1.41180000       2.44330000
H        3.73840000       2.97780000       1.00350000
H        3.03710000       4.41010000       1.88050000
