18
Properties=species:S:1:pos:R:3 gdb_33137=T pbc="F F F"
C       -0.07830000       1.47930000       0.26130000
N       -0.12760000       0.01960000       0.25300000
H        0.66120000      -0.34580000      -0.27320000
H       -0.13410000      -1.23610000       1.78940000
C       -1.36860000      -0.52330000      -0.32700000
C       -1.37350000      -2.01350000      -0.19800000
C       -1.82660000      -2.97340000      -1.04820000
O       -1.68390000      -4.20550000      -0.51000000
C       -1.10520000      -4.04770000       0.72430000
C       -0.89590000      -2.72430000       0.96330000
O       -0.34790000      -2.15290000       2.05950000
H        0.88810000       1.81110000       0.64990000
H       -0.22740000       1.92970000      -0.73380000
H       -0.85960000       1.86560000       0.92380000
H       -2.19760000      -0.08680000       0.24790000
H       -1.52110000      -0.21410000      -1.37480000
H       -2.27130000      -2.93430000      -2.02980000
H       -0.91290000      -4.94550000       1.28430000
