18
Properties=species:S:1:pos:R:3 gdb_25667=T pbc="F F F"
C       -0.09180000       1.45010000       0.01500000
C       -0.03220000      -0.00300000      -0.00320000
C        0.02980000      -1.20990000      -0.01690000
C        0.10210000      -2.61690000      -0.03280000
C        1.20280000      -3.46340000      -0.05910000
C        0.72340000      -4.79240000      -0.06770000
C       -0.65420000      -4.72860000      -0.04660000
N       -1.03270000      -3.41490000      -0.03040000
C       -2.39460000      -2.93160000       0.06450000
H        0.83700000       1.87510000       0.41190000
H       -0.24180000       1.86500000      -0.98890000
H       -0.91230000       1.80810000       0.64740000
H        2.23050000      -3.13650000      -0.08050000
H        1.31350000      -5.69520000      -0.09700000
H       -1.39800000      -5.51000000      -0.04360000
H       -2.68210000      -2.73530000       1.10380000
H       -2.49500000      -2.00390000      -0.50200000
H       -3.07200000      -3.67910000      -0.35370000
