20
Properties=species:S:1:pos:R:3 gdb_94580=T pbc="F F F"
C        0.27580000       1.44630000       0.24500000
C        0.09260000      -0.06260000       0.17880000
O        0.10500000      -0.75930000       1.17840000
N       -0.08870000      -0.56890000      -1.07810000
C       -0.17720000      -1.97450000      -1.34870000
C       -1.46060000      -2.56810000      -2.00090000
C       -0.53670000      -3.47230000      -2.86330000
C        0.63900000      -2.50550000      -2.55910000
O        0.74570000      -1.44640000      -3.50060000
H        1.28470000       1.66290000       0.60810000
H        0.12930000       1.94920000      -0.71440000
H       -0.42750000       1.85320000       0.97540000
H       -0.00040000       0.03460000      -1.88010000
H        0.07810000      -2.50140000      -0.42840000
H       -2.18020000      -3.05080000      -1.33720000
H       -1.97690000      -1.82180000      -2.60890000
H       -0.37630000      -4.45710000      -2.41570000
H       -0.79310000      -3.59950000      -3.91810000
H        1.62350000      -2.94410000      -2.35220000
H        1.04000000      -1.81440000      -4.33910000
