19
Properties=species:S:1:pos:R:3 gdb_52730=T pbc="F F F"
C       -0.14210000       1.50160000       0.00870000
C       -0.06910000       0.04790000       0.00780000
C       -0.00320000      -1.15490000       0.02640000
C        0.04880000      -2.61710000      -0.00680000
O       -1.25680000      -3.19450000      -0.05310000
C        0.92560000      -3.11640000      -1.17550000
C        1.02790000      -4.64900000      -1.20200000
C        1.66650000      -5.14990000      -2.47410000
O        2.63260000      -5.86580000      -2.53330000
H        0.84420000       1.94340000       0.18730000
H       -0.50700000       1.88380000      -0.95080000
H       -0.81590000       1.86550000       0.79180000
H        0.48110000      -2.98770000       0.93160000
H       -1.77480000      -2.67920000      -0.68140000
H        0.49000000      -2.74820000      -2.11360000
H        1.91990000      -2.66470000      -1.09010000
H        1.59420000      -5.03290000      -0.34820000
H        0.00840000      -5.05450000      -1.15100000
H        1.16150000      -4.79540000      -3.40510000
