13
Properties=species:S:1:pos:R:3 gdb_21774=T pbc="F F F"
O       -0.27480000      -0.12300000       0.07420000
C       -0.14290000       1.07580000       0.15880000
N       -1.07610000       2.09070000      -0.06780000
N       -0.62650000       3.40230000       0.11250000
C        0.60010000       3.18310000       0.45380000
C        1.97060000       3.68230000       0.86640000
C        2.35020000       2.14410000       0.91480000
N        0.95720000       1.87360000       0.50370000
H       -2.02780000       1.92880000      -0.34640000
H        2.50700000       4.26330000       0.11460000
H        2.01590000       4.19640000       1.82780000
H        3.09320000       1.82080000       0.18330000
H        2.59850000       1.75320000       1.90330000
