23
Properties=species:S:1:pos:R:3 gdb_77896=T pbc="F F F"
C       -0.20640000       1.31720000      -0.69530000
C        0.17830000      -0.14500000      -0.53030000
C        1.54550000      -0.77510000      -0.58900000
C        2.64700000       0.00330000       0.14270000
C        3.20940000       1.31400000      -0.39640000
C        1.75820000      -0.03890000       1.44590000
O        1.39890000       1.15020000       2.11970000
C        0.69010000      -0.85270000       0.70230000
C       -0.03070000      -2.01850000       1.32410000
H       -0.21950000       1.59410000      -1.75550000
H       -1.21410000       1.49430000      -0.30050000
H        0.47460000       2.00990000      -0.19870000
H       -0.54340000      -0.78670000      -1.03710000
H        1.74440000      -1.58250000      -1.28650000
H        3.49250000      -0.67380000       0.31010000
H        2.44370000       2.05910000      -0.61690000
H        3.90000000       1.75680000       0.32910000
H        3.76690000       1.13590000      -1.32280000
H        2.25090000      -0.65570000       2.20390000
H        0.65570000       1.54740000       1.65950000
H       -0.76650000      -1.68190000       2.06490000
H       -0.56760000      -2.60460000       0.57090000
H        0.66600000      -2.69120000       1.83780000
