20
Properties=species:S:1:pos:R:3 gdb_102199=T pbc="F F F"
C       -1.36630000      -0.92900000      -0.22760000
C       -0.05500000      -0.15600000      -0.04200000
C        0.70460000      -0.41820000       1.27300000
C       -0.09440000      -0.01210000       2.53710000
C       -0.47230000       1.39500000       2.55530000
C       -0.77080000       2.55930000       2.55900000
C        1.15410000      -1.89190000       1.43240000
C        2.00510000      -2.35250000       0.33790000
N        2.67920000      -2.70260000      -0.53320000
H       -2.09880000      -0.69270000       0.55100000
H       -1.82140000      -0.66820000      -1.18740000
H       -1.21330000      -2.01330000      -0.23120000
H        0.61880000      -0.38440000      -0.87520000
H       -0.26050000       0.91800000      -0.09510000
H        1.61150000       0.19700000       1.25150000
H       -0.99490000      -0.63410000       2.62200000
H        0.50890000      -0.23280000       3.42740000
H       -1.03940000       3.58670000       2.57140000
H        1.70830000      -2.01350000       2.37030000
H        0.28350000      -2.55460000       1.49660000
