18
Properties=species:S:1:pos:R:3 gdb_71193=T pbc="F F F"
C       -0.07450000       1.54880000       0.00780000
C        0.01970000       0.04770000       0.04990000
C       -1.24320000      -0.85910000       0.15880000
C       -0.31390000      -1.89740000       0.77740000
C        0.68070000      -0.87120000       1.15920000
N        1.02990000      -1.85820000       0.09610000
C        0.92070000      -0.77780000      -0.92520000
C        0.40020000      -1.12940000      -2.29220000
O       -0.10420000      -2.18250000      -2.58940000
H        0.91740000       2.01370000       0.01010000
H       -0.60110000       1.88570000      -0.89250000
H       -0.62580000       1.93080000       0.87370000
H       -1.93570000      -0.46770000       0.90910000
H       -1.78530000      -1.10860000      -0.75790000
H       -0.56110000      -2.83040000       1.26480000
H        1.28120000      -0.68610000       2.04010000
H        1.90270000      -0.29890000      -1.03060000
H        0.49800000      -0.30510000      -3.03940000
