15
Properties=species:S:1:pos:R:3 gdb_14288=T pbc="F F F"
O       -0.40040000       1.50050000      -0.30900000
C       -0.13090000       0.15250000      -0.09030000
C       -1.31180000      -0.76930000       0.13190000
C       -2.66510000      -0.24460000      -0.31040000
C       -2.51110000       0.01090000      -1.80090000
N       -3.38110000       0.51620000      -2.55830000
O       -1.26170000      -0.39560000      -2.22210000
C       -0.49890000      -0.87170000      -1.13610000
H        0.03880000       1.77210000      -1.12230000
H        0.76280000      -0.05600000       0.49780000
H       -1.25630000      -1.51960000       0.91030000
H       -3.45290000      -0.98390000      -0.14170000
H       -2.96000000       0.68130000       0.18730000
H       -3.03180000       0.58650000      -3.51510000
H        0.14940000      -1.69630000      -1.40600000
