20
Properties=species:S:1:pos:R:3 gdb_113960=T pbc="F F F"
O        0.23420000       1.37600000      -0.04970000
C       -0.11200000       0.08460000       0.42960000
C       -1.55670000      -0.24670000       0.11100000
C       -2.50830000       0.79290000      -0.37140000
N       -2.10170000      -0.30770000      -1.24280000
C       -1.24610000      -0.01060000      -2.38890000
C       -2.11080000       0.23690000      -3.60350000
C       -2.40110000       1.59280000      -4.08580000
O       -1.44240000       0.76570000      -4.74910000
H        1.18870000       1.47450000       0.01460000
H        0.54400000      -0.68620000      -0.00620000
H        0.00860000       0.02800000       1.52340000
H       -1.93760000      -1.03870000       0.75550000
H       -3.54580000       0.78680000      -0.04740000
H       -2.08690000       1.77610000      -0.56430000
H       -0.57450000       0.84390000      -2.23340000
H       -0.62130000      -0.89340000      -2.57820000
H       -2.83370000      -0.55010000      -3.82010000
H       -3.31590000       1.78800000      -4.64370000
H       -1.98820000       2.45020000      -3.55510000
