16
Properties=species:S:1:pos:R:3 gdb_12488=T pbc="F F F"
O       -0.12900000      -0.08930000       0.42720000
C       -0.07810000       1.04390000       0.03420000
C       -1.29000000       1.96650000       0.03180000
C       -1.79770000       2.39290000      -1.35280000
O       -0.78960000       2.86370000      -2.23170000
C        0.25840000       3.57150000      -1.60740000
C        1.39850000       2.63830000      -1.21190000
O        1.13130000       1.55800000      -0.30780000
H       -2.08930000       1.42460000       0.54130000
H       -1.05280000       2.84530000       0.63980000
H       -2.25850000       1.54020000      -1.86060000
H       -2.57490000       3.16070000      -1.21590000
H        0.66770000       4.26560000      -2.35110000
H       -0.09510000       4.17950000      -0.76460000
H        1.78540000       2.17790000      -2.12830000
H        2.20650000       3.22150000      -0.75630000
