16
Properties=species:S:1:pos:R:3 gdb_129812=T pbc="F F F"
N        0.10050000       1.36720000       0.12920000
C       -0.02070000      -0.02140000       0.04570000
C       -1.19390000      -0.70860000      -0.03930000
C       -1.21110000      -2.14540000       0.02060000
N       -2.31530000      -2.81760000       0.03630000
C        0.15530000      -2.73700000       0.03510000
N        0.25370000      -4.11990000       0.04760000
N        1.26120000      -2.05900000       0.07090000
N        1.15640000      -0.70270000       0.10710000
H        0.79620000       1.75470000      -0.49720000
H       -0.78470000       1.83710000      -0.00140000
H       -2.13730000      -0.18320000      -0.11730000
H       -2.13670000      -3.81570000       0.14140000
H       -0.41340000      -4.58290000      -0.55530000
H        1.19900000      -4.44460000      -0.10540000
H        2.01240000      -0.22840000       0.34000000
