16
Properties=species:S:1:pos:R:3 gdb_47323=T pbc="F F F"
O       -0.06580000      -0.08900000      -0.00030000
C       -0.03130000       1.12460000       0.00910000
C       -1.30490000       1.97610000      -0.05250000
O       -1.60940000       2.72210000       1.13340000
C       -0.87310000       3.73560000       1.65580000
O       -1.39000000       4.43990000       2.47800000
C        0.60310000       3.92800000       1.30250000
C        1.19210000       3.29300000       0.04090000
N        1.12600000       1.84320000       0.04060000
H       -1.28690000       2.64390000      -0.92260000
H       -2.13650000       1.28210000      -0.16290000
H        0.75840000       5.01030000       1.28270000
H        1.15300000       3.55550000       2.17540000
H        0.71250000       3.70060000      -0.85790000
H        2.24620000       3.57310000      -0.02470000
H        1.97550000       1.30170000       0.09490000
