16
Properties=species:S:1:pos:R:3 gdb_5229=T pbc="F F F"
C       -0.05720000       1.51300000      -0.12280000
C       -0.04090000       0.01930000       0.18130000
N       -1.37250000      -0.55310000       0.01350000
C       -1.51840000      -1.90840000       0.00610000
N       -0.60080000      -2.81730000      -0.14710000
C       -1.32250000      -4.01110000      -0.14410000
C       -2.63490000      -3.75540000       0.02110000
O       -2.78250000      -2.38150000       0.12230000
H        0.94500000       1.93410000      -0.00480000
H       -0.39540000       1.70030000      -1.14590000
H       -0.72390000       2.05250000       0.56030000
H        0.62440000      -0.51020000      -0.50520000
H        0.34730000      -0.16200000       1.19500000
H       -2.13190000      -0.05640000       0.45610000
H       -0.83150000      -4.96470000      -0.25760000
H       -3.53600000      -4.33740000       0.09250000
