21
Properties=species:S:1:pos:R:3 gdb_81644=T pbc="F F F"
C       -0.27850000       1.58390000       0.11110000
C        0.00400000       0.09610000       0.01240000
C        0.82520000      -0.53950000      -1.13990000
C        2.07420000       0.27410000      -1.51380000
C        2.86150000       0.62400000      -0.26030000
C        4.13210000       1.40370000      -0.41910000
C        2.37070000       0.19500000       0.90650000
C        1.10030000      -0.62260000       0.85510000
O        1.22940000      -1.59850000      -0.22860000
H        0.63620000       2.18030000       0.07290000
H       -0.93320000       1.90750000      -0.70600000
H       -0.79040000       1.81960000       1.05080000
H       -0.92270000      -0.47740000       0.10830000
H        0.29470000      -0.92330000      -2.01650000
H        2.70120000      -0.30980000      -2.20130000
H        1.79220000       1.18700000      -2.05820000
H        3.95110000       2.36560000      -0.91590000
H        4.60680000       1.60110000       0.54600000
H        4.85050000       0.86150000      -1.04800000
H        2.85460000       0.40600000       1.85520000
H        0.82940000      -1.09090000       1.80400000
