12
Properties=species:S:1:pos:R:3 gdb_131333=T pbc="F F F"
O        0.05890000       1.35370000       0.13250000
C        0.06990000       0.01880000       0.02170000
N        0.09220000      -0.70450000      -1.06010000
N        0.09580000      -2.06610000      -0.70500000
C        0.07490000      -2.05550000       0.59810000
N        0.06290000      -2.88660000       1.68310000
N        0.03940000      -2.17340000       2.85280000
C        0.03620000      -0.91700000       2.51580000
N        0.05750000      -0.78180000       1.13840000
H        0.07090000       1.70550000      -0.76770000
H        0.07060000      -3.88970000       1.70740000
H        0.01940000      -0.09570000       3.21100000
