15
Properties=species:S:1:pos:R:3 gdb_132991=T pbc="F F F"
C       -0.02300000       1.44320000       0.03030000
N       -0.00610000      -0.01560000       0.01350000
C       -0.03250000      -0.71280000      -1.15620000
N       -0.02090000      -2.00070000      -1.27420000
C        0.02220000      -2.71490000      -0.09680000
C        0.05070000      -2.11120000       1.10890000
F        0.09240000      -2.80700000       2.24800000
C        0.03800000      -0.66890000       1.26040000
N        0.06120000       0.02690000       2.33600000
H        0.86810000       1.81860000       0.53860000
H       -0.05510000       1.80920000      -0.99660000
H       -0.89380000       1.79800000       0.58630000
H       -0.06600000      -0.09820000      -2.05160000
H        0.03260000      -3.79720000      -0.17450000
H        0.09230000      -0.59450000       3.14180000
