19
Properties=species:S:1:pos:R:3 gdb_60845=T pbc="F F F"
C        0.19050000       1.22780000       0.46270000
C       -0.05660000      -0.22470000       0.05100000
C       -1.54200000      -0.54940000      -0.04370000
O       -2.42630000       0.20290000       0.27500000
C        0.61170000      -0.60230000      -1.26440000
O        0.08860000       0.04650000      -2.39390000
C        2.08500000      -0.97350000      -1.29030000
C        1.01120000      -2.01880000      -1.52630000
O        0.71970000      -2.95770000      -0.53320000
H        1.26030000       1.42300000       0.58090000
H       -0.21340000       1.92120000      -0.28190000
H       -0.31450000       1.45160000       1.40450000
H        0.33950000      -0.90910000       0.81340000
H       -1.75800000      -1.57100000      -0.42490000
H        0.36670000       0.96870000      -2.36640000
H        2.67010000      -0.65170000      -2.14470000
H        2.61270000      -1.00480000      -0.34280000
H        0.87360000      -2.35880000      -2.55160000
H        1.43500000      -3.60210000      -0.50920000
