22
Properties=species:S:1:pos:R:3 gdb_119017=T pbc="F F F"
C        3.42110000       0.78790000      -1.34730000
C        2.84100000      -0.62630000      -1.25510000
C        1.32190000      -0.65520000      -1.47800000
C        0.70330000      -2.04540000      -1.48130000
C        0.80030000      -2.82270000      -0.16800000
C        0.12500000      -2.14570000       0.94200000
N       -0.40670000      -1.59630000       1.80870000
C       -0.53670000      -2.27270000      -2.30990000
C        0.78240000      -2.86510000      -2.74720000
H        3.23400000       1.22910000      -2.33260000
H        2.97150000       1.44900000      -0.59860000
H        4.50290000       0.78590000      -1.18310000
H        3.32790000      -1.27530000      -1.99430000
H        3.08310000      -1.04680000      -0.27090000
H        0.82890000      -0.04220000      -0.71170000
H        1.09590000      -0.17770000      -2.43970000
H        0.35400000      -3.81630000      -0.28520000
H        1.84710000      -2.98350000       0.11480000
H       -1.29700000      -2.94520000      -1.92670000
H       -0.93270000      -1.43190000      -2.86870000
H        1.28420000      -2.42270000      -3.60120000
H        0.91380000      -3.93930000      -2.66730000
