21
Properties=species:S:1:pos:R:3 gdb_109712=T pbc="F F F"
C        0.08650000       1.19800000      -0.45680000
O       -0.11820000       0.10190000       0.41500000
C       -1.34750000      -0.52400000       0.22640000
C       -1.46740000      -1.69670000      -0.73620000
C       -0.29360000      -2.14630000      -1.57920000
C       -1.45620000      -1.91070000       0.75660000
C       -0.42530000      -2.63310000       1.61690000
O       -1.47370000      -3.14600000       2.47280000
C       -2.50430000      -2.51220000       1.68510000
H        1.06610000       1.61890000      -0.21900000
H        0.07150000       0.89010000      -1.51120000
H       -0.67970000       1.97400000      -0.31020000
H       -2.20930000       0.14010000       0.32910000
H       -2.44180000      -1.80030000      -1.21070000
H        0.65390000      -1.89430000      -1.09570000
H       -0.31390000      -3.22940000      -1.74080000
H       -0.30670000      -1.66470000      -2.56270000
H        0.13300000      -3.44150000       1.12670000
H        0.27400000      -1.98500000       2.15730000
H       -3.09580000      -1.79840000       2.27430000
H       -3.18090000      -3.24660000       1.22640000
