18
Properties=species:S:1:pos:R:3 gdb_101223=T pbc="F F F"
O        0.16110000       1.41420000      -0.05100000
C        0.12160000       0.01010000       0.05270000
C       -1.32590000      -0.49400000       0.07950000
O       -2.03350000       0.05580000      -1.02790000
C       -1.42700000      -2.01710000       0.10300000
C       -2.84800000      -2.64160000      -0.02010000
C       -2.30310000      -3.36270000      -1.27210000
O       -2.68550000      -4.21110000      -2.02600000
N       -1.10640000      -2.65790000      -1.19320000
H       -0.52070000       1.64160000      -0.69710000
H        0.65620000      -0.47180000      -0.78720000
H        0.64130000      -0.26910000       0.97650000
H       -1.81790000      -0.09220000       0.97340000
H       -1.79640000      -0.48140000      -1.79690000
H       -0.84850000      -2.42360000       0.94040000
H       -3.14680000      -3.31350000       0.78530000
H       -3.64000000      -1.92100000      -0.22780000
H       -0.20760000      -2.92670000      -1.57170000
