21
Properties=species:S:1:pos:R:3 gdb_68223=T pbc="F F F"
C       -0.13190000       1.52810000      -0.03370000
C        0.06920000       0.03250000       0.03260000
C        1.13280000      -0.66990000      -0.86880000
C        1.19670000      -1.75370000       0.25360000
C        0.79880000      -0.62190000       1.24160000
C        0.03350000      -2.69750000      -0.02530000
C       -1.12830000      -2.87000000       0.93170000
C       -1.25070000      -1.95780000      -0.26920000
O       -1.22850000      -0.55860000      -0.13380000
H        0.81570000       2.05090000       0.12420000
H       -0.53390000       1.81800000      -1.00950000
H       -0.84220000       1.85130000       0.73380000
H        0.82570000      -0.98380000      -1.86970000
H        2.04380000      -0.06860000      -0.92640000
H        2.13400000      -2.28340000       0.43370000
H        1.67570000      -0.03730000       1.53350000
H        0.21030000      -0.85130000       2.13140000
H        0.27300000      -3.53060000      -0.68040000
H       -1.67110000      -3.80880000       0.89360000
H       -1.07850000      -2.42530000       1.91780000
H       -1.91750000      -2.26150000      -1.07050000
