15
Properties=species:S:1:pos:R:3 gdb_27202=T pbc="F F F"
N        0.15090000       1.40140000       0.00880000
C       -0.01640000      -0.00140000       0.01140000
C       -1.09850000      -0.86980000      -0.01440000
N       -2.48760000      -0.87270000      -0.05350000
C       -2.79580000      -2.14090000      -0.05550000
N       -1.71190000      -3.00300000      -0.02050000
C       -0.58630000      -2.19820000       0.00710000
C        0.79010000      -2.15940000       0.04560000
N        1.09840000      -0.81000000       0.04730000
H       -0.26370000       1.81740000      -0.81980000
H       -0.31400000       1.82630000       0.80570000
H       -3.80390000      -2.53270000      -0.08180000
H       -1.75810000      -4.00640000      -0.01570000
H        1.55720000      -2.91360000       0.07120000
H        2.02790000      -0.42540000       0.07170000
