15
Properties=species:S:1:pos:R:3 gdb_60997=T pbc="F F F"
O       -0.55350000       1.15140000      -0.02860000
C       -0.08920000      -0.15690000      -0.09140000
C        0.96480000      -0.30410000      -1.18290000
O        1.38850000       0.65060000      -1.78190000
C        0.52950000      -0.64380000       1.22200000
N        1.41960000       0.28630000       1.90640000
C        0.15660000      -0.09830000       2.56400000
C       -0.83300000       0.92690000       2.80370000
N       -1.64300000       1.69450000       3.10310000
H        0.10370000       1.69770000      -0.48640000
H       -0.92410000      -0.83430000      -0.33550000
H        1.33590000      -1.33190000      -1.37770000
H        0.78830000      -1.70320000       1.22010000
H        2.20220000      -0.18920000       2.34680000
H        0.21290000      -0.81010000       3.38510000
