17
Properties=species:S:1:pos:R:3 gdb_50490=T pbc="F F F"
O        0.24770000       0.03830000       1.22400000
C        0.06400000       1.00910000       0.53450000
C        1.14930000       1.67860000      -0.29210000
C        1.44730000       3.10740000       0.25550000
C        2.70760000       2.87600000       1.12020000
C        3.45410000       1.80010000       0.28510000
N        2.40440000       0.92900000      -0.24460000
C        3.47720000       4.08590000       1.37630000
N        4.10120000       5.04060000       1.56500000
H       -0.93670000       1.48850000       0.46450000
H        0.75350000       1.76110000      -1.31570000
H        1.68050000       3.78830000      -0.56640000
H        0.61530000       3.53820000       0.81830000
H        2.41660000       2.43870000       2.08240000
H        3.99780000       2.29270000      -0.53030000
H        4.17830000       1.23240000       0.87300000
H        2.26100000       0.12920000       0.36600000
