15
Properties=species:S:1:pos:R:3 gdb_25648=T pbc="F F F"
C       -0.02030000       1.42630000       0.00710000
C        0.01560000      -0.02660000       0.00690000
C        0.06020000      -1.23260000       0.00750000
C        0.09190000      -2.64290000       0.00710000
N        1.17040000      -3.42350000       0.06280000
C        0.69920000      -4.69560000       0.03610000
O        1.53020000      -5.75860000       0.07840000
C       -0.67460000      -4.72970000      -0.03640000
N       -1.04210000      -3.40010000      -0.05380000
H        0.99330000       1.83860000       0.05580000
H       -0.49420000       1.81580000      -0.90110000
H       -0.57820000       1.81350000       0.86720000
H        2.42400000      -5.39770000       0.12610000
H       -1.38490000      -5.53580000      -0.07500000
H       -1.97970000      -3.03900000      -0.10270000
