18
Properties=species:S:1:pos:R:3 gdb_12690=T pbc="F F F"
C       -0.08860000       1.57190000       0.04380000
C        0.04810000       0.04280000      -0.00000000
C        0.81710000      -0.50710000      -1.23290000
C        2.23410000      -0.86040000      -0.71800000
C        1.95870000      -1.40930000       0.68720000
O        3.05280000      -1.46520000       1.55580000
C        0.87350000      -0.45880000       1.18580000
O        0.79440000      -0.10410000       2.33790000
H        0.88360000       2.05900000      -0.08620000
H       -0.75100000       1.92140000      -0.75320000
H       -0.49660000       1.88920000       1.00670000
H       -0.95470000      -0.39500000       0.07240000
H        0.32750000      -1.40850000      -1.61600000
H        0.84380000       0.21450000      -2.05310000
H        2.76050000      -1.56820000      -1.36130000
H        2.85630000       0.03750000      -0.62670000
H        1.48570000      -2.40570000       0.58230000
H        2.73760000      -1.09240000       2.39370000
