19
Properties=species:S:1:pos:R:3 gdb_39939=T pbc="F F F"
C       -0.28560000       1.44380000       0.00570000
N        1.12380000       1.03350000      -0.01220000
C        0.05850000      -0.00660000       0.03230000
C       -0.00130000      -0.77050000       1.30130000
C       -0.12500000      -2.09470000       1.36770000
C       -0.19700000      -3.01130000       0.17620000
C       -0.33150000      -2.28320000      -1.14630000
N       -1.53410000      -1.44640000      -1.30060000
C       -0.20830000      -0.80300000      -1.21130000
H       -0.60720000       1.93900000       0.91830000
H       -0.73630000       1.83650000      -0.90290000
H        1.49650000       1.10150000      -0.95720000
H        0.08120000      -0.18120000       2.21010000
H       -0.15730000      -2.57580000       2.34200000
H        0.70880000      -3.63440000       0.14980000
H       -1.03550000      -3.71200000       0.29120000
H       -0.00170000      -2.84520000      -2.01780000
H       -1.84810000      -1.45790000      -2.26730000
H        0.19780000      -0.36720000      -2.12400000
