18
Properties=species:S:1:pos:R:3 gdb_80171=T pbc="F F F"
C       -0.26230000       1.57010000       0.01890000
C        0.01890000       0.06450000      -0.03630000
C        0.79840000      -0.44800000      -1.24060000
C        2.25990000      -0.07310000      -1.42220000
O        2.85510000       0.98490000      -0.73840000
C        1.90000000      -1.35670000      -0.71150000
N        1.82530000      -1.24780000       0.71730000
C        0.82870000      -0.41610000       1.18480000
O        0.65080000      -0.11330000       2.34220000
H        0.66130000       2.13810000      -0.10820000
H       -0.95920000       1.86260000      -0.77180000
H       -0.70340000       1.82400000       0.98650000
H       -0.93760000      -0.47320000       0.01260000
H        0.24650000      -0.73230000      -2.12890000
H        2.64330000      -0.16670000      -2.43460000
H        3.05260000       0.68750000       0.15830000
H        2.12650000      -2.33600000      -1.11770000
H        2.49740000      -1.65410000       1.34910000
