24
Properties=species:S:1:pos:R:3 gdb_119981=T pbc="F F F"
C       -2.14110000       0.50990000       0.62950000
C       -1.12030000      -0.58390000       0.30710000
C       -1.14760000      -0.99600000      -1.16690000
N       -0.21870000      -2.09510000      -1.40430000
C        0.23960000      -2.42500000      -2.75330000
C       -0.21380000      -1.69080000      -4.00050000
C        1.18600000      -1.84950000      -1.74560000
C        1.79650000      -0.47800000      -1.89250000
O        2.18330000      -0.03810000      -0.59320000
H       -1.95430000       1.41780000       0.04410000
H       -3.16360000       0.18190000       0.40930000
H       -2.10340000       0.78680000       1.68750000
H       -0.10840000      -0.24280000       0.55070000
H       -1.30980000      -1.47320000       0.91870000
H       -2.14890000      -1.35980000      -1.43280000
H       -0.96820000      -0.10620000      -1.79190000
H        0.30880000      -3.50170000      -2.91460000
H       -0.25850000      -0.60730000      -3.87940000
H        0.46900000      -1.90610000      -4.82950000
H       -1.21040000      -2.03240000      -4.30140000
H        1.87070000      -2.53260000      -1.24260000
H        2.67440000      -0.55730000      -2.55420000
H        1.10280000       0.23370000      -2.35760000
H        2.60580000       0.82150000      -0.68160000
