18
Properties=species:S:1:pos:R:3 gdb_36272=T pbc="F F F"
N        0.15760000      -1.05010000       1.14590000
C        0.03100000      -0.04230000       0.59450000
C       -0.10610000       1.23760000      -0.10060000
C        1.24570000       1.97700000      -0.18630000
C        1.85670000       2.74340000      -1.32930000
C        0.96390000       3.78330000      -2.06090000
C       -0.45110000       3.90760000      -1.56510000
C        0.67170000       4.47170000      -0.73760000
C        1.56210000       3.43680000       0.00390000
H       -0.51180000       1.03440000      -1.09640000
H       -0.85050000       1.83170000       0.43850000
H        2.02710000       1.38980000       0.29190000
H        2.82050000       2.45800000      -1.73250000
H        1.28040000       4.23540000      -2.99160000
H       -1.01680000       4.67400000      -2.08870000
H       -1.06560000       3.07140000      -1.26580000
H        0.73200000       5.52730000      -0.50800000
H        2.26990000       3.75410000       0.75980000
