20
Properties=species:S:1:pos:R:3 gdb_29264=T pbc="F F F"
C       -0.01510000       1.53790000       0.00830000
C        0.00060000       0.03900000       0.01170000
C       -0.02820000      -0.78320000      -1.08950000
N        0.00060000      -2.08980000      -0.65360000
C        0.04770000      -2.12590000       0.72100000
C        0.04860000      -0.81750000       1.15430000
C        0.08720000      -3.37710000       1.49930000
C       -0.66840000      -4.61970000       1.06930000
C        0.83520000      -4.60500000       1.01680000
H        0.87920000       1.95600000       0.48590000
H       -0.05640000       1.93000000      -1.01240000
H       -0.88080000       1.93750000       0.55010000
H       -0.06640000      -0.54910000      -2.14180000
H       -0.01180000      -2.89340000      -1.25600000
H        0.08050000      -0.50550000       2.18830000
H        0.12270000      -3.19590000       2.56820000
H       -1.15490000      -5.21310000       1.83560000
H       -1.21830000      -4.57360000       0.13470000
H        1.31770000      -4.54890000       0.04640000
H        1.38530000      -5.18810000       1.74710000
