21
Properties=species:S:1:pos:R:3 gdb_94060=T pbc="F F F"
C       -0.03520000       1.56450000       0.01320000
C        0.01260000       0.03500000      -0.01030000
C        0.70600000      -0.50140000      -1.27390000
C        0.81300000      -2.03200000      -1.26050000
C        1.49020000      -2.49870000       0.05040000
N        0.85130000      -1.98620000       1.26710000
C        0.71910000      -0.52660000       1.23850000
C        1.56070000      -3.96430000       0.11200000
N        1.59220000      -5.11890000       0.13190000
H        0.97570000       1.98900000       0.01830000
H       -0.55560000       1.95890000      -0.86560000
H       -0.55490000       1.93410000       0.90360000
H       -1.02010000      -0.34620000      -0.00360000
H        0.17020000      -0.17300000      -2.17140000
H        1.71440000      -0.06710000      -1.33890000
H       -0.18460000      -2.48440000      -1.31850000
H        1.38090000      -2.39470000      -2.12400000
H        2.52470000      -2.12440000       0.05270000
H       -0.06540000      -2.41430000       1.36490000
H        1.73080000      -0.09920000       1.30120000
H        0.19360000      -0.22000000       2.14910000
