18
Properties=species:S:1:pos:R:3 gdb_82000=T pbc="F F F"
C       -0.12510000       1.55420000      -0.12460000
C        0.01360000       0.04410000      -0.01960000
C        1.05470000      -0.64390000      -0.91330000
O        2.35140000      -0.18080000      -0.50220000
C        1.75080000      -1.24430000       0.22900000
C        0.77660000      -0.58850000       1.24830000
C        1.41750000       0.35590000       2.26810000
C       -0.05880000      -1.58760000       1.90440000
N       -0.71460000      -2.38810000       2.42120000
H        0.85150000       2.04330000      -0.10580000
H       -0.61820000       1.82040000      -1.06570000
H       -0.73290000       1.95680000       0.69150000
H       -0.95860000      -0.44490000      -0.12300000
H        0.95510000      -0.98710000      -1.93610000
H        2.30120000      -2.17110000       0.33870000
H        2.11720000       1.02130000       1.75990000
H        0.65960000       0.95700000       2.77770000
H        1.96320000      -0.21260000       3.02660000
