17
Properties=species:S:1:pos:R:3 gdb_46134=T pbc="F F F"
N       -0.05650000       1.31490000      -0.22550000
C       -0.02110000       0.07660000       0.01980000
C       -1.27960000      -0.75610000       0.08900000
C       -1.21390000      -1.87970000       1.13020000
C        0.09860000      -2.66350000       0.93270000
C        1.28180000      -1.68340000       1.03580000
O        1.17050000      -0.60420000       0.11080000
C        0.25470000      -3.74100000       1.90720000
N        0.38470000      -4.58180000       2.68940000
H        0.89330000       1.69020000      -0.27720000
H       -2.12050000      -0.08560000       0.26930000
H       -1.42740000      -1.19980000      -0.90510000
H       -1.23290000      -1.46770000       2.14550000
H       -2.07690000      -2.54320000       1.03470000
H        0.10440000      -3.10920000      -0.07030000
H        1.34100000      -1.29080000       2.05980000
H        2.22590000      -2.17920000       0.80310000
