20
Properties=species:S:1:pos:R:3 gdb_62159=T pbc="F F F"
C        0.02910000       1.32170000       0.46500000
C        0.09770000      -0.13110000      -0.02160000
C        0.91120000      -1.02360000       0.93550000
N        2.29250000      -0.60370000       1.09740000
C        2.78320000      -0.08490000       2.25720000
O        2.14080000       0.10010000       3.26840000
C       -1.31080000      -0.73160000      -0.20930000
C       -2.06750000      -0.07610000      -1.34270000
O       -3.16940000       0.39980000      -1.26110000
H        1.02920000       1.75160000       0.56180000
H       -0.54090000       1.94710000      -0.22910000
H       -0.45560000       1.37990000       1.44520000
H        0.60050000      -0.14840000      -1.00140000
H        0.46950000      -1.00440000       1.93560000
H        0.88880000      -2.06090000       0.57800000
H        2.92920000      -0.71320000       0.32380000
H        3.86200000       0.15410000       2.17350000
H       -1.21950000      -1.79860000      -0.46320000
H       -1.90670000      -0.65170000       0.70530000
H       -1.51020000      -0.06510000      -2.31080000
