18
Properties=species:S:1:pos:R:3 gdb_26105=T pbc="F F F"
C       -0.35980000       1.45710000      -0.12450000
C        0.02980000      -0.02070000       0.04330000
C        0.97280000      -0.20930000       1.24290000
O       -1.14060000      -0.83030000       0.19720000
C        0.68460000      -0.52620000      -1.21100000
C        0.29210000      -1.52100000      -2.04120000
O        1.21160000      -1.61610000      -3.05300000
C        2.11850000      -0.65800000      -2.76870000
N        1.86980000       0.02160000      -1.69810000
H        0.51950000       2.06460000      -0.35360000
H       -1.08190000       1.56280000      -0.93810000
H       -0.81240000       1.83870000       0.79830000
H        0.51070000       0.18410000       2.15600000
H        1.18470000      -1.27170000       1.38770000
H        1.91590000       0.31840000       1.07930000
H       -1.59250000      -0.53710000       0.99480000
H       -0.53730000      -2.20290000      -2.06420000
H        2.94800000      -0.55430000      -3.45050000
