15
Properties=species:S:1:pos:R:3 gdb_128914=T pbc="F F F"
N       -0.00950000      -1.18660000      -0.03760000
C        0.00290000      -0.03820000      -0.16490000
C        0.03910000       1.41420000      -0.31380000
C        1.28850000       2.02330000       0.35250000
C        1.35090000       3.51550000       0.21430000
N        0.40830000       4.17240000      -0.42050000
O        0.76880000       5.51290000      -0.36450000
C        1.92410000       5.62020000       0.30650000
C        2.35740000       4.40000000       0.70610000
H        0.01690000       1.66830000      -1.37780000
H       -0.86820000       1.84400000       0.12140000
H        1.30570000       1.75640000       1.41510000
H        2.19080000       1.58060000      -0.08420000
H        2.31100000       6.62130000       0.41790000
H        3.24800000       4.15790000       1.26160000
