21
Properties=species:S:1:pos:R:3 gdb_89534=T pbc="F F F"
C       -0.73870000       1.34950000       0.17090000
C        0.01700000       0.04430000       0.02280000
C        0.81090000      -0.19720000      -1.27900000
C        2.03480000      -0.26410000      -0.35220000
O        1.23830000       0.02270000       0.80550000
C        3.08700000      -1.40200000      -0.30230000
C        3.74850000      -0.70430000      -1.52640000
C        3.39210000       0.45360000      -0.54850000
C        3.93260000      -0.45240000       0.60120000
H       -0.11260000       2.19650000      -0.12690000
H       -1.63900000       1.34390000      -0.45360000
H       -1.04480000       1.49890000       1.21110000
H       -0.62550000      -0.80060000       0.30520000
H        0.57200000      -1.11340000      -1.82240000
H        0.80560000       0.64550000      -1.97500000
H        2.90520000      -2.46870000      -0.16230000
H        4.81490000      -0.89730000      -1.66220000
H        3.21290000      -0.74250000      -2.47880000
H        3.56150000       1.52180000      -0.69200000
H        3.54750000      -0.25670000       1.60210000
H        5.01140000      -0.62920000       0.60420000
