18
Properties=species:S:1:pos:R:3 gdb_22735=T pbc="F F F"
C        0.33090000       1.64700000      -0.15770000
C        0.02180000       0.16420000       0.03750000
C        0.38440000      -0.80730000      -1.14310000
C        1.22390000      -1.64440000      -0.16450000
C        1.40200000      -3.09840000      -0.05850000
O        2.47150000      -2.24190000      -0.46750000
C        0.97660000      -0.63900000       0.91790000
N        1.45240000      -0.57000000       2.08990000
O        0.94000000       0.53560000       2.78810000
H        1.36850000       1.79160000      -0.47580000
H       -0.32150000       2.07510000      -0.92600000
H        0.18400000       2.19900000       0.77330000
H       -1.01460000       0.03930000       0.37070000
H       -0.45110000      -1.32060000      -1.62310000
H        1.00140000      -0.32950000      -1.90870000
H        1.51550000      -3.55000000       0.92560000
H        0.99340000      -3.74360000      -0.83590000
H        1.40330000       0.47720000       3.63070000
