25
Properties=species:S:1:pos:R:3 gdb_114658=T pbc="F F F"
C        0.14240000       1.59950000      -0.25600000
C        0.21990000       0.07030000      -0.18470000
C       -1.14300000      -0.59270000       0.03150000
C       -2.15680000      -0.48360000      -1.16770000
C       -2.48760000      -1.97810000      -1.35640000
C       -2.65260000      -2.45250000       0.11610000
C       -1.13080000      -2.13410000       0.17240000
C       -1.06120000      -2.61570000      -1.31600000
C       -0.93930000      -4.11390000      -1.57060000
H        1.13300000       2.04210000      -0.40020000
H       -0.49250000       1.93040000      -1.08480000
H       -0.27760000       2.01620000       0.66650000
H        0.68500000      -0.31220000      -1.10170000
H        0.88790000      -0.21810000       0.63800000
H       -1.58570000      -0.15410000       0.93510000
H       -3.03860000       0.11610000      -0.92440000
H       -1.69450000      -0.05070000      -2.06150000
H       -3.20960000      -2.23780000      -2.13300000
H       -3.31490000      -1.87260000       0.76700000
H       -2.88620000      -3.51270000       0.21230000
H       -0.48030000      -2.55510000       0.94210000
H       -0.31960000      -2.09910000      -1.93590000
H       -1.64240000      -4.71170000      -0.98420000
H       -1.11760000      -4.34020000      -2.62790000
H        0.07030000      -4.46390000      -1.32740000
