17
Properties=species:S:1:pos:R:3 gdb_35199=T pbc="F F F"
N        0.01320000      -1.11720000      -0.10230000
C       -0.00940000       0.03910000      -0.05360000
C       -0.00560000       1.47220000      -0.00340000
C        0.50880000       2.18270000       1.24640000
C        1.33080000       2.20310000       0.00850000
C        2.74800000       1.65350000      -0.17440000
N        3.16780000       2.90040000      -0.91700000
C        2.30630000       2.96530000      -2.10930000
C        1.73120000       3.39750000      -0.81770000
H       -0.82160000       1.94600000      -0.53970000
H       -0.02060000       3.08390000       1.53760000
H        0.83800000       1.56050000       2.07170000
H        3.30850000       1.56500000       0.75860000
H        2.85650000       0.73250000      -0.75570000
H        2.60980000       3.74070000      -2.80580000
H        1.96650000       2.04040000      -2.57130000
H        1.49620000       4.43140000      -0.58460000
