21
Properties=species:S:1:pos:R:3 gdb_92504=T pbc="F F F"
C        0.52010000       1.34830000      -0.20980000
C       -0.05040000      -0.03640000       0.07460000
O        0.10140000      -0.91210000      -1.03400000
C        1.08480000      -1.87910000      -0.73580000
C        2.55970000      -1.50910000      -1.06810000
C        2.85980000      -1.34630000       0.45170000
C        1.38110000      -1.73280000       0.78410000
C        1.15920000      -2.90800000       1.71420000
O        0.56600000      -0.64400000       1.19750000
H        1.59080000       1.29750000      -0.42400000
H        0.01000000       1.78810000      -1.07170000
H        0.36600000       1.99680000       0.65750000
H       -1.12640000       0.04240000       0.28620000
H        0.73850000      -2.84960000      -1.10190000
H        3.11680000      -2.31320000      -1.55480000
H        2.65260000      -0.60650000      -1.67480000
H        3.60240000      -2.04440000       0.84570000
H        3.12120000      -0.33870000       0.77970000
H        1.45140000      -2.64610000       2.73630000
H        0.10350000      -3.19550000       1.72210000
H        1.75590000      -3.77020000       1.40030000
