18
Properties=species:S:1:pos:R:3 gdb_35109=T pbc="F F F"
C       -0.67570000      -0.96050000      -1.21910000
C       -0.35970000       0.02570000      -0.61040000
C        0.00760000       1.22000000       0.15660000
C       -0.53350000       1.13860000       1.57350000
C        0.12510000       1.61940000       2.62320000
C        1.46730000       2.28390000       2.50990000
C        2.18460000       1.96150000       1.20980000
C        2.34340000       0.54940000       0.76770000
N        1.46070000       1.45800000       0.03460000
H       -0.95040000      -1.82710000      -1.76810000
H       -0.47020000       2.08340000      -0.33260000
H       -1.51070000       0.67890000       1.68510000
H       -0.31720000       1.55640000       3.61390000
H        1.33770000       3.37310000       2.58860000
H        2.10400000       2.00540000       3.36010000
H        2.97020000       2.66760000       0.94690000
H        3.23090000       0.23130000       0.22810000
H        1.88490000      -0.21710000       1.38810000
