19
Properties=species:S:1:pos:R:3 gdb_117304=T pbc="F F F"
C       -1.24890000       1.23180000       0.00790000
C       -0.22920000       0.11310000       0.10470000
O        0.21710000      -0.18070000      -1.22940000
C        1.13750000      -1.16260000      -1.33830000
N        1.60170000      -1.80530000      -0.35640000
N        1.43950000      -1.29550000      -2.70570000
C        2.33520000      -2.18690000      -3.26110000
C        2.44020000      -2.08410000      -4.77280000
O        2.98030000      -2.97890000      -2.60390000
H       -0.80660000       2.12920000      -0.43430000
H       -2.10410000       0.93160000      -0.60460000
H       -1.61430000       1.48550000       1.00740000
H        0.63560000       0.39410000       0.71410000
H       -0.65290000      -0.79510000       0.54500000
H        2.27870000      -2.49280000      -0.68150000
H        0.93900000      -0.66640000      -3.31470000
H        2.76850000      -1.08350000      -5.07290000
H        3.16200000      -2.82100000      -5.12240000
H        1.47030000      -2.27360000      -5.24440000
