21
Properties=species:S:1:pos:R:3 gdb_122152=T pbc="F F F"
O       -1.01690000       1.38840000      -1.04690000
C       -0.49000000       0.35680000      -0.22430000
C       -1.58920000      -0.59140000       0.24800000
O       -2.20880000      -1.18340000      -0.87920000
C       -3.52840000      -0.84860000      -1.31610000
C       -4.25550000       0.30250000      -0.60040000
O       -3.79500000       1.61110000      -0.90050000
C       -3.43890000      -0.62420000      -2.83220000
O       -2.71700000       0.54970000      -3.18890000
H       -1.30470000       0.97840000      -1.88440000
H        0.27580000      -0.21360000      -0.76700000
H       -0.01030000       0.83690000       0.63590000
H       -1.15380000      -1.39480000       0.85780000
H       -2.29940000      -0.05140000       0.88380000
H       -4.16210000      -1.73780000      -1.15610000
H       -5.29760000       0.26480000      -0.93710000
H       -4.27870000       0.12280000       0.48420000
H       -2.84300000       1.67470000      -0.69070000
H       -2.90450000      -1.46720000      -3.27860000
H       -4.45470000      -0.60200000      -3.25530000
H       -3.20360000       1.28340000      -2.78010000
