17
Properties=species:S:1:pos:R:3 gdb_1659=T pbc="F F F"
C        0.02330000       1.53050000      -0.05160000
C       -0.13500000       0.04040000       0.24810000
C       -1.55780000      -0.45880000       0.09160000
O       -2.50300000       0.29510000      -0.02130000
C       -1.81350000      -1.97030000       0.06020000
C       -1.28840000      -2.68160000       1.31550000
O       -3.18490000      -2.21500000      -0.09710000
H        1.05540000       1.84900000       0.11680000
H       -0.24000000       1.75170000      -1.08960000
H       -0.63460000       2.12540000       0.58560000
H        0.52160000      -0.57190000      -0.38300000
H        0.17340000      -0.18110000       1.27950000
H       -1.25850000      -2.35770000      -0.81400000
H       -1.74490000      -2.25800000       2.21530000
H       -1.56150000      -3.73820000       1.26190000
H       -0.19990000      -2.61080000       1.39880000
H       -3.59190000      -1.33590000      -0.16840000
