22
Properties=species:S:1:pos:R:3 gdb_105809=T pbc="F F F"
C       -0.21180000       1.40540000      -0.49810000
C       -0.31970000      -0.12530000      -0.44740000
C        0.49230000      -0.79330000      -1.52240000
C       -0.01940000      -0.84740000      -3.01450000
C        1.01320000      -1.18850000      -4.05370000
C        0.51200000      -2.26720000      -3.13480000
C        1.03440000      -2.19110000      -1.65890000
N        1.88250000      -1.08430000      -1.31820000
C        3.09570000      -0.56860000      -1.94400000
H        0.82310000       1.72720000      -0.34290000
H       -0.54050000       1.79460000      -1.46790000
H       -0.82960000       1.87150000       0.27550000
H        0.02540000      -0.49340000       0.52440000
H       -1.37090000      -0.42440000      -0.55280000
H       -1.00660000      -0.49240000      -3.28310000
H        0.60640000      -1.25350000      -5.06000000
H        2.02500000      -0.81420000      -4.03000000
H       -0.01660000      -3.13760000      -3.50210000
H        0.96450000      -3.03540000      -0.97870000
H        2.90960000       0.35730000      -2.49870000
H        3.82990000      -0.34330000      -1.16080000
H        3.54900000      -1.30020000      -2.62080000
