18
Properties=species:S:1:pos:R:3 gdb_83016=T pbc="F F F"
C       -0.04480000       1.48520000      -0.01520000
C       -0.00720000      -0.01840000      -0.12460000
C        0.75490000      -0.72930000      -1.19270000
N        1.27450000      -0.65990000       0.19370000
C        1.16720000      -2.02540000       0.75330000
C        0.54550000      -2.87420000      -0.32860000
C        0.34250000      -2.15090000      -1.44210000
C       -0.18300000      -2.58990000      -2.67920000
C       -0.61850000      -2.91870000      -3.75350000
H        0.88770000       1.92210000      -0.38200000
H       -0.87640000       1.89720000      -0.59690000
H       -0.17330000       1.79470000       1.02790000
H       -0.90740000      -0.53420000       0.21230000
H        1.28170000      -0.18100000      -1.96930000
H        2.16850000      -2.38720000       1.02570000
H        0.57600000      -2.01380000       1.67880000
H        0.29320000      -3.92010000      -0.20570000
H       -1.00600000      -3.22250000      -4.69420000
