18
Properties=species:S:1:pos:R:3 gdb_38033=T pbc="F F F"
C        0.09870000       1.50350000       0.01680000
C        1.33990000       0.67420000      -0.01240000
C        1.92530000       0.43720000       1.34620000
C        1.07190000      -0.28710000       2.06640000
C        0.75310000      -0.56820000       3.50060000
O       -0.67330000      -0.77170000       3.51380000
C       -1.24540000      -0.37160000       2.26090000
C       -0.13700000      -0.67030000       1.24270000
N       -0.01130000       0.04080000      -0.04230000
H       -0.11980000       2.02700000       0.94420000
H       -0.24970000       1.99950000      -0.88510000
H        1.94530000       0.61100000      -0.91230000
H        2.84610000       0.89860000       1.68180000
H        1.22510000      -1.48090000       3.88670000
H        1.02920000       0.26150000       4.16610000
H       -2.15710000      -0.95730000       2.12250000
H       -1.50770000       0.69710000       2.26320000
H       -0.15200000      -1.74650000       1.02270000
