20
Properties=species:S:1:pos:R:3 gdb_79637=T pbc="F F F"
C        0.07480000       1.54150000       0.04020000
C        0.01120000       0.01100000       0.00310000
C        0.70770000      -0.60320000      -1.21740000
O        2.10590000      -0.32370000      -1.32650000
C        1.71520000      -1.58720000      -0.78460000
C        1.69950000      -1.64870000       0.73100000
C        0.67280000      -0.67400000       1.20890000
N        2.09670000      -0.40320000       1.39550000
C        2.58970000      -0.55350000       2.75780000
H        1.11800000       1.86290000       0.07120000
H       -0.39940000       1.97910000      -0.84420000
H       -0.43710000       1.93480000       0.92430000
H       -1.03730000      -0.31530000      -0.02760000
H        0.17540000      -0.66350000      -2.16540000
H        1.99730000      -2.46120000      -1.36560000
H        1.87910000      -2.59530000       1.23190000
H        0.07510000      -0.87160000       2.09670000
H        2.08150000      -1.34810000       3.33190000
H        3.65980000      -0.78180000       2.73100000
H        2.45520000       0.39210000       3.29270000
