14
Properties=species:S:1:pos:R:3 gdb_133511=T pbc="F F F"
F        0.04740000       0.08920000      -0.04790000
C       -0.01610000       1.40680000       0.04730000
F        1.23310000       1.89870000       0.08350000
F       -0.61050000       1.89210000      -1.05500000
C       -0.79680000       1.86190000       1.30880000
O       -1.25780000       1.03840000       2.05980000
C       -0.90580000       3.32620000       1.47650000
C       -2.18340000       3.85040000       2.12680000
C       -0.92020000       3.85500000       2.90830000
H       -0.43740000       3.93710000       0.71580000
H       -2.57160000       4.78620000       1.74270000
H       -2.92460000       3.09850000       2.37190000
H       -0.80470000       3.10630000       3.68350000
H       -0.40820000       4.79410000       3.08110000
