22
Properties=species:S:1:pos:R:3 gdb_117353=T pbc="F F F"
C        0.31660000       0.90690000      -0.07130000
O        0.67750000      -0.35980000       0.44670000
C        1.02010000      -1.30410000      -0.52340000
C       -0.17140000      -1.87340000      -1.29980000
O       -1.30310000      -1.49140000      -1.12170000
C        0.16030000      -2.91660000      -2.37220000
N        1.17220000      -3.87350000      -1.94820000
C        0.63750000      -4.82430000      -0.98110000
C        1.80030000      -4.55430000      -3.07130000
H        0.15250000       1.56270000       0.78690000
H        1.12670000       1.32950000      -0.68730000
H       -0.60110000       0.85860000      -0.66700000
H        1.74330000      -0.90560000      -1.25910000
H        1.53190000      -2.12950000      -0.01880000
H       -0.78960000      -3.38050000      -2.69180000
H        0.55240000      -2.35920000      -3.23400000
H       -0.15430000      -5.46830000      -1.40730000
H        1.44140000      -5.46900000      -0.61340000
H        0.20930000      -4.29450000      -0.12440000
H        2.25250000      -3.82120000      -3.74610000
H        2.59370000      -5.21190000      -2.70260000
H        1.09370000      -5.17140000      -3.65730000
