19
Properties=species:S:1:pos:R:3 gdb_32910=T pbc="F F F"
C       -0.12450000       1.57320000      -0.05390000
C       -0.13680000       0.04370000      -0.09880000
C        0.84290000      -0.52940000      -1.14260000
C        0.87520000      -2.01920000      -1.20570000
C        1.82870000      -2.94250000      -0.88480000
N        1.38180000      -4.23890000      -1.10670000
C        0.16850000      -4.08550000      -1.55690000
O       -0.69000000      -5.05480000      -1.92230000
N       -0.21000000      -2.78510000      -1.64440000
H        0.87140000       1.95250000       0.20080000
H       -0.40170000       2.00200000      -1.02360000
H       -0.82730000       1.95560000       0.69250000
H        0.11880000      -0.36550000       0.88550000
H       -1.15300000      -0.30930000      -0.31840000
H        0.59820000      -0.10790000      -2.12910000
H        1.85720000      -0.18450000      -0.91190000
H        2.82200000      -2.75390000      -0.50630000
H       -0.22340000      -5.88860000      -1.78430000
H       -1.10000000      -2.45160000      -1.97310000
