10
Properties=species:S:1:pos:R:3 gdb_2620=T pbc="F F F"
O       -0.06470000      -0.07580000       0.00230000
C       -0.01940000       1.13120000       0.00740000
C        1.20820000       1.89360000       0.00030000
C        2.21630000       2.55430000      -0.00530000
C        3.45510000       3.32380000      -0.01290000
C        3.23950000       4.77630000      -0.00320000
N        3.08350000       5.91980000       0.00430000
H       -0.93700000       1.75170000       0.01800000
H        4.06730000       3.05300000       0.85720000
H        4.05070000       3.06230000      -0.89730000
