23
Properties=species:S:1:pos:R:3 gdb_60178=T pbc="F F F"
C        0.10720000       1.51570000      -0.04580000
C        0.06380000      -0.01250000       0.08640000
C        0.58890000      -0.45390000       1.45930000
C       -1.35800000      -0.53430000      -0.20020000
C       -1.46510000      -2.04270000      -0.28290000
C       -1.85090000      -2.88240000       0.90110000
C       -2.82630000      -2.73520000      -0.25840000
C       -4.03630000      -1.98320000      -0.10010000
C       -5.05830000      -1.35890000       0.01930000
H        1.12070000       1.89820000       0.11430000
H       -0.22310000       1.84170000      -1.03770000
H       -0.54690000       1.99160000       0.69490000
H        0.73110000      -0.43340000      -0.68050000
H        0.61690000      -1.54280000       1.55420000
H        1.60260000      -0.07610000       1.62980000
H       -0.04810000      -0.06470000       2.26310000
H       -2.04890000      -0.15930000       0.56530000
H       -1.70330000      -0.10540000      -1.15030000
H       -0.75920000      -2.50090000      -0.97230000
H       -1.38450000      -3.85140000       1.04080000
H       -2.10990000      -2.36820000       1.81970000
H       -2.92060000      -3.60180000      -0.90660000
H       -5.96030000      -0.81010000       0.12830000
