21
Properties=species:S:1:pos:R:3 gdb_1191=T pbc="F F F"
C        0.00900000       1.55520000      -0.10520000
C       -0.04940000       0.03000000       0.01490000
C       -1.46920000      -0.56970000       0.08790000
C       -1.36400000      -2.10230000       0.15650000
C       -2.24640000      -0.03270000       1.30120000
O       -2.07600000      -0.16030000      -1.14850000
C       -3.42320000      -0.50370000      -1.37140000
H        1.03990000       1.88710000      -0.26300000
H       -0.59400000       1.89540000      -0.95020000
H       -0.35870000       2.05270000       0.79780000
H        0.44450000      -0.41790000      -0.85530000
H        0.50970000      -0.29990000       0.89880000
H       -0.78550000      -2.40590000       1.03470000
H       -2.34620000      -2.57780000       0.23380000
H       -0.86290000      -2.48830000      -0.73620000
H       -2.43370000       1.03980000       1.20530000
H       -3.20950000      -0.53790000       1.41960000
H       -1.67480000      -0.20090000       2.21930000
H       -3.67490000      -0.13410000      -2.36930000
H       -3.59620000      -1.58920000      -1.35560000
H       -4.10760000      -0.03530000      -0.65000000
