22
Properties=species:S:1:pos:R:3 gdb_113168=T pbc="F F F"
C       -0.14450000       1.43370000       0.10060000
C       -0.35460000      -0.07170000      -0.10680000
C        0.38140000      -0.56620000      -1.33180000
N        1.80820000      -0.84420000      -1.21340000
C        0.90700000      -1.97370000      -1.50360000
C        0.76810000      -3.03120000      -0.42790000
C        0.90430000      -2.41690000      -2.94810000
C        0.24860000      -3.73800000      -3.29520000
O        1.40880000      -1.71700000      -3.80410000
H        0.91890000       1.65700000       0.22880000
H       -0.50760000       2.00830000      -0.75860000
H       -0.67770000       1.78740000       0.98810000
H       -0.00910000      -0.61190000       0.77880000
H       -1.42470000      -0.28820000      -0.21920000
H        0.06480000      -0.09630000      -2.26330000
H        2.26780000      -0.59680000      -2.09060000
H        0.87510000      -2.58400000       0.56070000
H       -0.20160000      -3.53700000      -0.47410000
H        1.55110000      -3.79120000      -0.52560000
H        0.78220000      -4.56780000      -2.81930000
H       -0.78170000      -3.77030000      -2.92450000
H        0.25830000      -3.87220000      -4.37710000
