21
Properties=species:S:1:pos:R:3 gdb_121529=T pbc="F F F"
C       -0.35330000       1.45470000       0.10600000
C        0.06020000      -0.00970000      -0.10110000
O        0.78030000      -0.17970000      -1.32200000
C        0.80840000      -0.52720000       1.04930000
C        1.46130000      -0.91790000       1.98410000
C        2.22980000      -1.43060000       3.11280000
C        1.95580000      -2.91800000       3.40600000
C        2.77110000      -3.43030000       4.58610000
O        2.44610000      -4.79740000       4.77620000
H        0.53070000       2.08490000       0.24770000
H       -0.89960000       1.80680000      -0.77300000
H       -0.98970000       1.55870000       0.98970000
H       -0.84620000      -0.61260000      -0.23640000
H        1.66120000       0.18630000      -1.18600000
H        3.30110000      -1.28670000       2.91630000
H        2.00710000      -0.83210000       4.00690000
H        0.89160000      -3.06410000       3.61710000
H        2.18920000      -3.51910000       2.52150000
H        3.84680000      -3.29930000       4.38000000
H        2.53920000      -2.83480000       5.48520000
H        2.95890000      -5.12930000       5.51880000
