17
Properties=species:S:1:pos:R:3 gdb_110488=T pbc="F F F"
C       -0.13530000       1.33190000       0.17450000
O       -0.11470000      -0.00570000      -0.28350000
C       -1.34300000      -0.66320000      -0.13150000
C       -1.16190000      -2.10090000      -0.62710000
C       -0.98510000      -2.60150000       0.75840000
C       -1.57750000      -1.26620000       1.31060000
N       -3.03050000      -1.47770000       1.42220000
C       -3.27090000      -2.41930000       0.60360000
N       -2.14370000      -3.06590000      -0.02120000
H        0.85670000       1.74850000      -0.01280000
H       -0.88390000       1.92980000      -0.36610000
H       -0.35190000       1.39840000       1.25020000
H       -2.17390000      -0.06060000      -0.52600000
H       -0.70480000      -2.39670000      -1.56280000
H       -0.29520000      -3.31370000       1.19500000
H       -1.13540000      -0.75010000       2.15900000
H       -4.26470000      -2.78120000       0.36270000
