21
Properties=species:S:1:pos:R:3 gdb_91073=T pbc="F F F"
O       -0.61150000       1.24180000       0.82880000
C       -0.08520000       0.10050000       0.14640000
C        0.82990000      -0.78680000       1.04110000
C        0.01130000      -2.02040000       1.46580000
C       -0.83200000      -2.03650000       2.75690000
C       -1.80200000      -0.89000000       2.83440000
C       -2.12400000      -2.04720000       1.93190000
C       -1.30770000      -2.02330000       0.62250000
C       -1.27790000      -0.78600000      -0.29490000
H        0.13250000       1.75350000       1.16220000
H        0.47430000       0.45510000      -0.73070000
H        1.70290000      -1.10400000       0.45970000
H        1.20760000      -0.21000000       1.89280000
H        0.58910000      -2.94180000       1.36690000
H       -0.58640000      -2.62800000       3.63120000
H       -2.38590000      -0.86790000       3.75010000
H       -1.56130000       0.08780000       2.43240000
H       -3.01240000      -2.64970000       2.07980000
H       -1.45390000      -2.94460000       0.05460000
H       -2.19690000      -0.19490000      -0.25940000
H       -1.13180000      -1.09740000      -1.33410000
