16
Properties=species:S:1:pos:R:3 gdb_28958=T pbc="F F F"
C       -0.03460000       1.52540000       0.00490000
C       -0.00970000       0.01960000      -0.00450000
C       -0.02600000      -0.69960000      -1.19910000
C       -0.00160000      -2.09210000      -1.21030000
C        0.03990000      -2.80340000      -0.01370000
C        0.05690000      -2.11410000       1.19130000
C        0.03230000      -0.71330000       1.19960000
C        0.05040000      -0.02220000       2.45230000
N        0.06510000       0.54610000       3.46140000
H        0.85770000       1.93440000       0.49090000
H       -0.08270000       1.92210000      -1.01160000
H       -0.89630000       1.90570000       0.56360000
H       -0.05850000      -0.15480000      -2.13720000
H       -0.01530000      -2.62200000      -2.15680000
H        0.05890000      -3.88730000      -0.01810000
H        0.08890000      -2.64710000       2.13450000
