16
Properties=species:S:1:pos:R:3 gdb_124423=T pbc="F F F"
C       -0.02630000       1.56650000       0.02230000
C        0.09260000       0.02350000       0.00700000
C        0.70110000      -0.42920000      -1.24970000
N        1.18800000      -0.76180000      -2.24360000
C        0.85730000      -0.49930000       1.19890000
N        0.18960000      -0.82640000       2.30330000
N        1.14720000      -1.19240000       3.17460000
C        2.39620000      -1.11420000       2.65730000
C        2.25180000      -0.66150000       1.36400000
H        0.96280000       2.02960000      -0.01720000
H       -0.61080000       1.91890000      -0.83140000
H       -0.52070000       1.87550000       0.94590000
H       -0.91600000      -0.40140000       0.05740000
H        0.87630000      -1.50030000       4.09310000
H        3.26740000      -1.38620000       3.23180000
H        3.02980000      -0.49050000       0.63840000
