19
Properties=species:S:1:pos:R:3 gdb_39924=T pbc="F F F"
C       -0.13990000       1.48620000       0.06380000
C        1.24510000       0.90230000      -0.00220000
C        0.04000000      -0.01700000       0.01730000
C       -0.24430000      -0.87910000       1.19740000
C       -0.65070000      -2.10540000       0.85920000
C       -0.73410000      -2.26150000      -0.63580000
O       -2.08440000      -2.17240000      -1.16750000
C       -1.85410000      -0.82180000      -1.62280000
C       -0.36960000      -0.85600000      -1.18880000
H       -0.46860000       1.93290000       0.99640000
H       -0.53250000       1.97290000      -0.82310000
H        1.79390000       0.98910000      -0.93460000
H        1.86630000       0.94670000       0.88630000
H       -0.11460000      -0.51700000       2.21280000
H       -0.91230000      -2.89810000       1.54980000
H       -0.22590000      -3.15030000      -1.02660000
H       -2.03510000      -0.72580000      -2.70010000
H       -2.47340000      -0.09020000      -1.08800000
H        0.34340000      -0.81690000      -2.01310000
