14
Properties=species:S:1:pos:R:3 gdb_130016=T pbc="F F F"
N       -0.00320000       1.27090000      -0.10410000
C       -0.02140000      -0.08530000      -0.03750000
N       -1.12230000      -0.77820000      -0.02410000
C       -0.68920000      -2.10710000      -0.01980000
N       -1.27350000      -3.29520000      -0.00390000
N       -0.19940000      -4.11280000       0.00260000
N        1.01660000      -3.54200000      -0.00910000
C        0.70540000      -2.25830000      -0.02410000
C        1.30310000      -0.88930000      -0.03910000
H        0.82720000       1.76450000       0.17520000
H       -0.88100000       1.74220000       0.05160000
H       -0.30600000      -5.11250000       0.00850000
H        1.89780000      -0.66120000      -0.92990000
H        1.91530000      -0.65160000       0.83820000
