17
Properties=species:S:1:pos:R:3 gdb_58028=T pbc="F F F"
C        0.02590000       1.44750000       0.16590000
C       -0.16590000      -0.05640000       0.32730000
O       -0.03350000      -0.43640000       1.69890000
C       -1.53280000      -0.56800000      -0.23920000
C       -1.79060000      -0.01830000      -1.56990000
N       -1.95980000       0.47880000      -2.59840000
C       -1.67230000      -2.11880000      -0.29120000
N       -1.33750000      -2.74510000       0.86570000
O       -2.09270000      -2.68310000      -1.27730000
H        0.97510000       1.74270000       0.62050000
H        0.03170000       1.73920000      -0.88580000
H       -0.78400000       1.99880000       0.66070000
H        0.63710000      -0.58930000      -0.19200000
H       -0.52530000       0.19800000       2.23340000
H       -2.31850000      -0.19410000       0.43300000
H       -0.82760000      -2.24370000       1.57950000
H       -1.33690000      -3.75260000       0.85340000
