16
Properties=species:S:1:pos:R:3 gdb_12256=T pbc="F F F"
O       -0.09220000       1.53710000      -0.08660000
C       -0.04830000       0.19360000       0.37290000
C       -1.33610000      -0.54220000       0.03020000
N       -1.57060000      -0.65110000      -1.43000000
C       -1.59940000      -2.04230000      -1.43490000
N       -1.75130000      -2.97010000      -2.28050000
C       -1.31050000      -2.10640000       0.06580000
O       -0.09130000      -2.68730000       0.45460000
H       -0.03360000       1.50290000      -1.04720000
H        0.80770000      -0.35240000      -0.04100000
H        0.07530000       0.23700000       1.45950000
H       -2.18190000      -0.10460000       0.57110000
H       -2.13150000      -0.03620000      -2.00260000
H       -1.92310000      -2.61310000      -3.22210000
H       -2.15380000      -2.52730000       0.62950000
H        0.04680000      -3.45440000      -0.11290000
