18
Properties=species:S:1:pos:R:3 gdb_128807=T pbc="F F F"
C        0.09650000       1.33420000      -0.11250000
O        0.10890000      -0.07240000      -0.13400000
C        0.52600000      -0.62480000       1.09990000
C        0.57970000      -2.11160000       0.97520000
N       -0.35010000      -2.89800000       1.50230000
N        0.07140000      -4.13430000       1.15110000
C       -0.67560000      -5.31150000       1.53700000
C        1.21610000      -4.03480000       0.44280000
N        1.57270000      -2.77290000       0.31320000
H        1.09590000       1.74990000       0.09400000
H       -0.22880000       1.67170000      -1.09950000
H       -0.60020000       1.72820000       0.64520000
H        1.52480000      -0.24570000       1.36890000
H       -0.17240000      -0.35590000       1.90680000
H       -1.68410000      -5.27210000       1.11820000
H       -0.15970000      -6.19460000       1.15590000
H       -0.74510000      -5.37410000       2.62580000
H        1.74130000      -4.89620000       0.05690000
