20
Properties=species:S:1:pos:R:3 gdb_13002=T pbc="F F F"
C       -0.02640000       1.48730000       0.03470000
C       -0.02360000      -0.00960000      -0.00700000
C        0.01740000      -0.78540000      -1.09580000
C        0.00300000      -2.26190000      -0.76600000
C        0.06200000      -2.27780000       0.75970000
C        1.25310000      -1.64150000       1.43430000
C       -0.02370000      -0.84020000       1.25010000
C       -0.83640000      -0.40660000       2.44780000
H        0.84020000       1.87170000       0.58810000
H       -0.00530000       1.91470000      -0.97130000
H       -0.91680000       1.87330000       0.54650000
H        0.08220000      -0.41550000      -2.11400000
H       -0.90900000      -2.74960000      -1.13790000
H        0.84460000      -2.79900000      -1.22390000
H       -0.45150000      -3.06870000       1.29530000
H        1.48590000      -1.98550000       2.43790000
H        2.11890000      -1.37600000       0.83530000
H       -0.46800000       0.53750000       2.86620000
H       -1.89190000      -0.26520000       2.18760000
H       -0.78790000      -1.15680000       3.24330000
