15
Properties=species:S:1:pos:R:3 gdb_18439=T pbc="F F F"
C       -0.17810000       1.53930000      -0.08180000
C        0.06000000       0.05610000       0.08700000
O        1.10750000      -0.50220000      -0.77820000
C        1.65900000      -1.20120000       0.32100000
C        2.24140000      -0.25950000       1.35070000
C        2.86460000       0.99190000       1.01540000
N        3.39630000       1.98880000       0.76680000
C        0.73990000      -0.55080000       1.31920000
H        0.71650000       2.12760000       0.12350000
H       -0.50090000       1.74480000      -1.10720000
H       -0.97780000       1.86040000       0.59430000
H       -0.86330000      -0.50320000      -0.11070000
H        2.00690000      -2.21690000       0.17340000
H        2.73040000      -0.77580000       2.17300000
H        0.23860000      -0.94550000       2.19230000
