16
Properties=species:S:1:pos:R:3 gdb_46814=T pbc="F F F"
O        0.04380000       0.00780000       0.08100000
C       -0.00190000       1.20350000      -0.01290000
C       -1.26670000       2.05980000      -0.16680000
C       -0.81050000       3.36040000      -0.85700000
C        0.67870000       3.49600000      -0.54340000
C        1.09880000       3.34730000       0.87390000
C        1.19430000       2.13110000      -0.06400000
C        2.48340000       1.60970000      -0.40190000
N        3.52920000       1.20190000      -0.67990000
H       -2.01700000       1.50090000      -0.72820000
H       -1.68860000       2.24160000       0.82850000
H       -0.94290000       3.27780000      -1.94000000
H       -1.37290000       4.23810000      -0.52490000
H        1.30280000       4.08400000      -1.20550000
H        2.05260000       3.76770000       1.16910000
H        0.35560000       3.31230000       1.66330000
