18
Properties=species:S:1:pos:R:3 gdb_123732=T pbc="F F F"
C       -0.17170000       1.46160000       0.02850000
C        1.32770000       1.48650000      -0.37230000
C        1.54630000       0.23090000       0.51860000
C        0.00470000      -0.02340000       0.44050000
C        2.49240000      -0.83690000       0.08830000
C        3.23950000      -0.93700000      -1.04460000
O        3.95710000      -2.07230000      -1.05380000
N        3.69360000      -2.77820000       0.11390000
C        2.83600000      -2.04240000       0.77410000
H       -0.36850000       2.10130000       0.89350000
H       -0.90690000       1.68890000      -0.74590000
H        1.45370000       1.24840000      -1.43310000
H        1.91380000       2.37900000      -0.14220000
H        1.79540000       0.55090000       1.53720000
H       -0.49780000      -0.37440000       1.34480000
H       -0.23420000      -0.70260000      -0.38280000
H        3.36930000      -0.29720000      -1.90320000
H        2.47770000      -2.39150000       1.73310000
