25
Properties=species:S:1:pos:R:3 gdb_99699=T pbc="F F F"
C       -0.09530000       1.59920000       0.01850000
C        0.03760000       0.07480000      -0.01230000
C        0.73030000      -0.51650000       1.24080000
C        0.00160000      -0.13100000       2.45280000
C       -0.62830000       0.17870000       3.43270000
C       -1.37570000       0.55790000       4.62460000
C        0.91190000      -2.06380000       1.17220000
C        1.66210000      -2.51000000      -0.09130000
C        1.63300000      -2.59020000       2.42070000
H        0.88740000       2.07950000       0.08950000
H       -0.57880000       1.96590000      -0.89240000
H       -0.68880000       1.92710000       0.87610000
H       -0.95430000      -0.38340000      -0.11300000
H        0.61110000      -0.21380000      -0.89820000
H        1.73970000      -0.07730000       1.29560000
H       -0.91640000       0.14870000       5.53140000
H       -1.41810000       1.64680000       4.73950000
H       -2.40740000       0.19080000       4.58350000
H       -0.09490000      -2.50290000       1.14960000
H        2.63660000      -2.01160000      -0.16690000
H        1.84800000      -3.58850000      -0.05880000
H        1.10610000      -2.30280000      -1.00890000
H        1.11050000      -2.30150000       3.33550000
H        1.70420000      -3.68240000       2.39500000
H        2.65440000      -2.19360000       2.47640000
