17
Properties=species:S:1:pos:R:3 gdb_114297=T pbc="F F F"
C        0.05750000       1.28690000      -0.17910000
O       -0.01970000      -0.01090000       0.37570000
C       -1.25930000      -0.62160000       0.18930000
C       -1.66080000      -1.21340000      -1.19920000
N       -1.87670000      -2.58080000      -0.59140000
C       -0.55960000      -3.01530000      -0.06660000
C        0.68110000      -2.72320000      -0.74290000
N        1.67050000      -2.55550000      -1.31720000
C       -1.34930000      -2.03790000       0.72610000
H        1.05530000       1.67050000       0.04080000
H       -0.08480000       1.27450000      -1.26920000
H       -0.69330000       1.95920000       0.26410000
H       -2.06950000       0.00510000       0.59070000
H       -2.60630000      -0.83900000      -1.59280000
H       -0.89590000      -1.19290000      -1.97920000
H       -0.60460000      -4.03660000       0.30200000
H       -1.77230000      -2.32950000       1.68170000
