18
Properties=species:S:1:pos:R:3 gdb_65544=T pbc="F F F"
O       -0.06710000       1.38530000      -0.00150000
C       -0.01520000      -0.03090000       0.02020000
C        0.48980000      -0.63630000       1.38690000
C       -0.80940000      -1.33220000       1.83350000
C       -1.24760000      -2.04480000       0.52010000
C       -1.45870000      -0.58280000       0.03330000
C       -1.88810000      -0.26410000       1.49420000
C        0.76530000      -0.51450000      -1.13350000
N        1.39920000      -0.87360000      -2.03130000
H        0.83410000       1.72650000      -0.00020000
H        1.32500000      -1.32920000       1.26040000
H        0.79780000       0.17520000       2.05180000
H       -0.78620000      -1.84770000       2.79310000
H       -0.51870000      -2.66860000      -0.00490000
H       -2.19470000      -2.57740000       0.62220000
H       -2.06530000      -0.32660000      -0.83370000
H       -2.90170000      -0.61360000       1.70000000
H       -1.75080000       0.75600000       1.85610000
