15
Properties=species:S:1:pos:R:3 gdb_129547=T pbc="F F F"
N       -0.39960000       1.60330000      -0.21780000
C        0.01090000       0.19690000      -0.08450000
C       -1.11590000      -0.63890000       0.33690000
C       -2.03760000      -1.34420000       0.64800000
C        0.65750000      -0.36460000      -1.33520000
N        1.63640000       0.21960000      -2.00630000
C        1.86010000      -0.64700000      -3.03230000
N        1.08920000      -1.72260000      -3.04120000
N        0.32450000      -1.51960000      -1.94190000
H        0.39750000       2.11620000      -0.58870000
H       -1.12750000       1.66670000      -0.92550000
H        0.77150000       0.17000000       0.70800000
H       -2.85590000      -1.95000000       0.95230000
H        2.60950000      -0.48130000      -3.79170000
H       -0.38590000      -2.18150000      -1.67210000
