16
Properties=species:S:1:pos:R:3 gdb_72832=T pbc="F F F"
N        0.10620000       1.47310000      -0.11190000
C        0.00920000       0.03670000       0.01250000
C        0.19870000      -0.89440000      -1.22120000
O       -1.11870000      -1.46170000      -1.04300000
C       -1.39420000      -0.59330000       0.07800000
C       -1.43550000      -1.40290000       1.37420000
O       -2.35060000      -2.01120000       1.84060000
O       -0.19720000      -1.38320000       1.94540000
C        0.68820000      -0.45210000       1.30870000
H        1.07790000       1.77170000      -0.10780000
H       -0.29090000       1.78670000      -0.99250000
H        0.28320000      -0.36060000      -2.17670000
H        0.98760000      -1.65360000      -1.15880000
H       -2.28190000       0.02820000      -0.06240000
H        1.63960000      -0.96130000       1.13060000
H        0.84960000       0.39110000       1.98740000
