14
Properties=species:S:1:pos:R:3 gdb_11650=T pbc="F F F"
O        0.17530000       1.44720000       0.09140000
C        0.05170000       0.06320000       0.03620000
C       -0.08690000      -0.68490000       1.38330000
C       -1.52470000      -0.11940000       1.52700000
C       -1.36910000      -0.63090000       0.06740000
N       -0.71070000      -1.86510000       0.65080000
C       -2.35000000      -0.68420000      -0.98650000
N       -3.11200000      -0.69050000      -1.85640000
H        0.14350000       1.80100000      -0.80370000
H        0.74200000      -0.40090000      -0.68220000
H        0.66520000      -0.82620000       2.15710000
H       -2.20070000      -0.70910000       2.14450000
H       -1.62230000       0.95610000       1.65410000
H       -0.04050000      -2.24670000      -0.02750000
