19
Properties=species:S:1:pos:R:3 gdb_107391=T pbc="F F F"
C       -0.24230000       1.50970000      -0.05630000
C        0.10160000       0.02000000       0.05400000
C        0.79620000      -0.50480000      -1.17870000
C        0.01710000      -0.93850000      -2.41250000
C        0.83340000      -1.94620000      -1.64740000
O        2.15900000      -2.16720000      -2.11030000
C        2.78010000      -0.95840000      -1.96730000
N        4.04980000      -0.91870000      -2.47690000
N        2.12710000       0.00760000      -1.44120000
H        0.66280000       2.09680000      -0.23330000
H       -0.92910000       1.69390000      -0.88910000
H       -0.71670000       1.87340000       0.86040000
H        0.75240000      -0.14630000       0.92110000
H       -0.81050000      -0.56470000       0.22570000
H       -1.05960000      -1.03250000      -2.31040000
H        0.36500000      -0.61800000      -3.38900000
H        0.40890000      -2.81500000      -1.16070000
H        4.54370000      -1.79850000      -2.45860000
H        4.58810000      -0.12900000      -2.15500000
