18
Properties=species:S:1:pos:R:3 gdb_86115=T pbc="F F F"
C        0.03500000       1.52910000       0.05150000
C       -0.01880000       0.03070000       0.01180000
C       -0.05100000      -0.65480000      -1.13500000
N       -0.08640000      -2.06260000      -1.17280000
C       -0.31360000      -2.83330000      -0.07120000
O       -0.20390000      -4.04760000      -0.05500000
C       -0.76990000      -2.05840000       1.16810000
O       -0.63680000      -2.86950000       2.30170000
C       -0.00280000      -0.74100000       1.31370000
H        0.91820000       1.87590000       0.60380000
H        0.07430000       1.96110000      -0.95250000
H       -0.83830000       1.94860000       0.56720000
H       -0.04250000      -0.17890000      -2.10860000
H        0.16030000      -2.55030000      -2.02110000
H       -1.83290000      -1.81010000       0.98370000
H       -0.51670000      -3.76840000       1.95430000
H        1.03090000      -0.96010000       1.62010000
H       -0.44640000      -0.15570000       2.12530000
