16
Properties=species:S:1:pos:R:3 gdb_132589=T pbc="F F F"
C        0.00570000       1.51050000      -0.04470000
C        0.00970000       0.00600000      -0.00820000
N       -0.00750000      -0.63850000      -1.18000000
C       -0.00420000      -1.96900000      -1.16530000
C        0.01670000      -2.64810000       0.04640000
F        0.02000000      -3.97710000       0.05260000
N        0.03390000      -2.04750000       1.21310000
C        0.03080000      -0.70880000       1.20650000
C        0.05040000      -0.01440000       2.54030000
H        0.89270000       1.92770000       0.44610000
H       -0.01180000       1.84670000      -1.08200000
H       -0.86710000       1.92370000       0.47430000
H       -0.01800000      -2.50100000      -2.11140000
H        0.93070000       0.63110000       2.63970000
H       -0.82820000       0.62850000       2.66710000
H        0.06410000      -0.75630000       3.33930000
