15
Properties=species:S:1:pos:R:3 gdb_29884=T pbc="F F F"
C       -0.02960000       1.48280000       0.06320000
N       -0.00750000       0.02370000       0.04300000
C       -0.03640000      -0.68750000      -1.13780000
N       -0.01960000      -1.95980000      -1.26540000
C        0.03410000      -2.77670000      -0.10040000
O        0.05200000      -3.98790000      -0.18990000
C        0.06660000      -2.06080000       1.17130000
C        0.04530000      -0.70890000       1.20690000
O        0.07100000       0.06940000       2.30920000
H        0.87200000       1.88030000       0.53580000
H       -0.07750000       1.83440000      -0.96820000
H       -0.90150000       1.85190000       0.60850000
H       -0.07760000      -0.05350000      -2.02320000
H        0.10820000      -2.63760000       2.08790000
H        0.10750000      -0.49990000       3.08650000
