16
Properties=species:S:1:pos:R:3 gdb_127159=T pbc="F F F"
C       -0.01090000       1.43950000      -0.09050000
N       -0.00770000      -0.02110000       0.02140000
C       -0.01970000      -0.62760000       1.26600000
N       -0.03270000       0.04170000       2.34710000
C        0.00790000      -0.78260000      -1.12340000
C        0.01840000      -2.13060000      -1.38060000
C        0.03210000      -2.17770000      -2.79490000
N        0.03060000      -0.99520000      -3.35670000
O        0.01470000      -0.09240000      -2.27200000
H        0.88190000       1.78190000      -0.61960000
H       -0.89360000       1.77650000      -0.63950000
H       -0.02340000       1.83770000       0.92160000
H       -0.01700000      -1.71790000       1.19800000
H       -0.04030000      -0.58290000       3.14940000
H        0.01710000      -2.95580000      -0.69150000
H        0.04350000      -3.05250000      -3.43080000
