22
Properties=species:S:1:pos:R:3 gdb_11376=T pbc="F F F"
C        0.12590000       1.54570000      -0.16050000
C       -0.09400000       0.04320000       0.09120000
C        0.64100000      -0.47980000       1.29090000
C        0.10220000      -0.97460000       2.40830000
C        1.13860000      -1.46010000       3.39070000
C        2.45920000      -0.85600000       2.84040000
C        3.70140000      -1.71200000       3.08110000
C        2.15550000      -0.56250000       1.34800000
H        1.18250000       1.77440000      -0.33120000
H       -0.43200000       1.87830000      -1.04150000
H       -0.20910000       2.13690000       0.69750000
H       -1.16600000      -0.15160000       0.21030000
H        0.22550000      -0.51250000      -0.80220000
H       -0.96490000      -1.06800000       2.58600000
H        0.93900000      -1.15080000       4.42370000
H        1.17860000      -2.56060000       3.40480000
H        2.60290000       0.11190000       3.33710000
H        3.60120000      -2.69180000       2.59930000
H        4.60100000      -1.23410000       2.67820000
H        3.86760000      -1.88320000       4.15040000
H        2.51190000      -1.37790000       0.69850000
H        2.65690000       0.34590000       0.99470000
