17
Properties=species:S:1:pos:R:3 gdb_30760=T pbc="F F F"
N        0.10280000       1.38800000       0.16240000
C        0.01690000      -0.00830000       0.01740000
C       -1.06600000      -0.82550000      -0.10940000
O       -0.67890000      -2.13360000      -0.13520000
C        0.68750000      -2.15060000      -0.03660000
C        1.38620000      -3.46530000      -0.04640000
O        2.45810000      -3.50220000       0.90160000
C        1.16350000      -0.87450000       0.06830000
N        2.49130000      -0.42830000       0.13890000
H        0.78630000       1.78410000      -0.47490000
H       -0.78550000       1.84930000       0.01020000
H       -2.12530000      -0.64080000      -0.17550000
H        0.65150000      -4.26440000       0.12850000
H        1.86830000      -3.67320000      -1.00970000
H        2.07600000      -3.28980000       1.76060000
H        3.11520000      -1.18500000       0.39660000
H        2.59130000       0.33480000       0.79980000
