18
Properties=species:S:1:pos:R:3 gdb_61938=T pbc="F F F"
C        1.29060000       1.46580000       0.23730000
C        0.65450000       0.08130000       0.25620000
C        0.71170000      -0.59040000      -1.13240000
C        0.03930000      -1.88290000      -1.19770000
C       -0.52590000      -2.94270000      -1.25630000
O        1.38310000      -0.71160000       1.20400000
C        0.60750000      -1.52160000       2.05260000
C       -0.14340000      -0.73700000       3.05480000
N       -0.73510000      -0.10950000       3.82380000
H        2.34710000       1.39450000      -0.03980000
H        0.78500000       2.11750000      -0.48140000
H        1.22540000       1.92170000       1.22780000
H       -0.39330000       0.16240000       0.57260000
H        0.26540000       0.08930000      -1.86910000
H        1.76710000      -0.70680000      -1.40810000
H       -1.02190000      -3.87960000      -1.32100000
H       -0.09990000      -2.14860000       1.49590000
H        1.30270000      -2.18410000       2.57740000
