19
Properties=species:S:1:pos:R:3 gdb_85523=T pbc="F F F"
C       -0.08620000       1.58520000       0.01060000
C        0.01950000       0.05750000       0.08060000
C        0.59580000      -0.52370000      -1.22170000
C        0.92080000      -2.00750000      -1.18070000
O        0.78930000      -2.74240000      -2.12050000
O        1.42630000      -2.50810000      -0.02240000
C        1.52120000      -1.73740000       1.15910000
C        2.34690000      -0.48290000       1.21830000
C        0.82810000      -0.41650000       1.27460000
H        0.90530000       2.03970000      -0.09230000
H       -0.69350000       1.89920000      -0.84460000
H       -0.54740000       1.98940000       0.91730000
H       -0.99430000      -0.34900000       0.20210000
H       -0.08790000      -0.37510000      -2.05970000
H        1.52380000       0.00090000      -1.48500000
H        1.54050000      -2.41530000       2.00380000
H        2.90830000      -0.28730000       2.12510000
H        2.84770000      -0.16570000       0.31080000
H        0.38980000      -0.18460000       2.24130000
