20
Properties=species:S:1:pos:R:3 gdb_115402=T pbc="F F F"
C       -0.19190000       1.46560000      -0.25090000
N       -0.16850000       0.08230000       0.19730000
C       -1.22600000      -0.59770000       0.17660000
C       -1.36020000      -2.03750000       0.62100000
C       -2.66970000      -2.49590000      -0.03910000
C       -3.45180000      -1.18090000      -0.20070000
C       -4.39590000      -0.86120000       0.95660000
O       -4.94320000       0.43300000       0.83830000
O       -2.44930000      -0.13960000      -0.26220000
H        0.73410000       1.67730000      -0.79460000
H       -1.04570000       1.71430000      -0.89200000
H       -0.21020000       2.13490000       0.61870000
H       -0.48370000      -2.61720000       0.33120000
H       -1.42730000      -2.07100000       1.71400000
H       -2.47340000      -2.93920000      -1.01890000
H       -3.22110000      -3.22910000       0.55470000
H       -4.00920000      -1.12570000      -1.14030000
H       -5.23350000      -1.56750000       0.94790000
H       -3.86090000      -0.99190000       1.91310000
H       -4.19830000       1.02790000       0.69030000
