22
Properties=species:S:1:pos:R:3 gdb_87211=T pbc="F F F"
C       -0.03140000       1.49700000      -0.04490000
C        0.15290000      -0.00380000      -0.02420000
C        1.54240000      -0.61510000       0.03260000
C        0.61360000      -0.71480000       1.21840000
O        0.87980000       0.10810000       2.32580000
C       -0.00470000      -2.04660000       1.58490000
N        0.88230000      -2.80900000       2.46450000
C        0.64390000      -2.65510000       3.90100000
C        0.25810000      -3.90600000       3.19700000
H        0.66850000       1.98380000       0.63760000
H        0.13040000       1.89620000      -1.05200000
H       -1.04420000       1.77470000       0.26680000
H       -0.57130000      -0.55390000      -0.62140000
H        1.75570000      -1.50820000      -0.54490000
H        2.37510000       0.07410000       0.12920000
H        1.64330000      -0.26870000       2.77670000
H       -0.99200000      -1.87410000       2.05170000
H       -0.16770000      -2.63500000       0.67490000
H        1.53080000      -2.63040000       4.52860000
H       -0.15560000      -1.98620000       4.21240000
H       -0.80570000      -4.08000000       3.04170000
H        0.85610000      -4.80710000       3.29850000
