17
Properties=species:S:1:pos:R:3 gdb_9045=T pbc="F F F"
C       -0.07390000       1.57990000       0.13180000
C        0.03630000       0.04630000       0.01550000
C        0.74250000      -0.43270000      -1.27550000
C       -0.04610000      -0.09240000      -2.55670000
C        0.59870000      -0.61760000      -3.75350000
C        1.15200000      -1.05820000      -4.72490000
C        0.73710000      -0.49540000       1.18530000
N        1.29930000      -0.91680000       2.10300000
H        0.91640000       2.04220000       0.08730000
H       -0.68260000       1.98380000      -0.68040000
H       -0.54060000       1.86410000       1.07780000
H       -0.97650000      -0.37890000       0.03160000
H        1.74160000       0.01210000      -1.32960000
H        0.88350000      -1.51610000      -1.22520000
H       -1.06300000      -0.50060000      -2.47920000
H       -0.15910000       0.99340000      -2.65760000
H        1.63160000      -1.44410000      -5.59010000
