19
Properties=species:S:1:pos:R:3 gdb_29699=T pbc="F F F"
C       -0.07610000       1.45720000       0.03010000
N        0.00130000       0.01270000      -0.00330000
C        0.02490000      -0.78970000      -1.14190000
N       -0.05960000      -0.17950000      -2.41500000
C        0.07940000      -2.09700000      -0.72860000
C        0.09680000      -2.12210000       0.70470000
C        0.15030000      -3.32430000       1.59800000
C        0.05450000      -0.80330000       1.09300000
O        0.06270000      -0.20050000       2.31620000
H        0.88190000       1.90790000       0.31420000
H       -0.35000000       1.79710000      -0.96910000
H       -0.83190000       1.77790000       0.75170000
H        0.84820000      -0.07900000      -2.86030000
H       -0.64470000      -0.72280000      -3.03810000
H        0.11230000      -2.95910000      -1.37920000
H        0.92190000      -4.03290000       1.27550000
H        0.39240000      -3.05450000       2.63410000
H       -0.79890000      -3.87510000       1.62680000
H        0.02790000      -0.88970000       2.98620000
