18
Properties=species:S:1:pos:R:3 gdb_12134=T pbc="F F F"
C        0.07590000       1.46440000      -0.04100000
C        0.07010000      -0.02380000       0.07030000
C       -0.89020000      -0.87950000       0.84000000
C        0.60620000      -1.01820000       1.08060000
C        1.21610000      -1.69430000      -0.11730000
C        2.61270000      -2.17530000      -0.31630000
C        1.42930000      -3.12930000      -0.46070000
O        0.60950000      -0.77140000      -1.03900000
H        1.08230000       1.83840000      -0.25250000
H       -0.58590000       1.79060000      -0.85150000
H       -0.28010000       1.91890000       0.88800000
H       -1.43020000      -0.37580000       1.63630000
H       -1.43940000      -1.66910000       0.33480000
H        1.08000000      -0.86910000       2.04170000
H        3.11740000      -1.86460000      -1.22460000
H        3.25550000      -2.27430000       0.55270000
H        1.26700000      -3.88030000       0.30540000
H        1.16530000      -3.43960000      -1.46590000
