14
Properties=species:S:1:pos:R:3 gdb_48427=T pbc="F F F"
O       -0.14960000      -0.10730000       0.09130000
C       -0.05010000       1.06280000      -0.14310000
C        1.26880000       1.83850000      -0.04720000
C        1.31340000       2.63600000       1.31770000
N        2.41410000       2.01310000       2.04990000
C        2.90240000       1.12730000       1.29150000
O        2.37480000       0.93550000       0.05220000
C        1.43480000       2.73350000      -1.26010000
O        0.62700000       3.57720000      -1.55130000
H       -0.90920000       1.70900000      -0.41870000
H        1.49580000       3.70320000       1.16070000
H        0.37730000       2.54160000       1.87770000
H        3.73820000       0.47930000       1.52600000
H        2.35340000       2.53740000      -1.85170000
