19
Properties=species:S:1:pos:R:3 gdb_91388=T pbc="F F F"
C       -0.02080000       1.53670000      -0.39680000
C        0.05560000       0.06200000      -0.07720000
O        0.42830000      -0.68100000      -1.22270000
C        1.18880000      -1.79610000      -0.77770000
C        2.70980000      -1.69580000      -1.08090000
C        3.00180000      -1.60380000       0.45350000
O        3.75630000      -0.53170000       0.93660000
C        1.46840000      -1.53320000       0.72550000
O        1.05870000      -0.18410000       0.90180000
H        0.94620000       1.88540000      -0.76790000
H       -0.77910000       1.70950000      -1.16430000
H       -0.29110000       2.10150000       0.49890000
H       -0.90980000      -0.31390000       0.30680000
H        0.69660000      -2.73410000      -1.04750000
H        3.15630000      -2.54980000      -1.59470000
H        2.95400000      -0.77950000      -1.62140000
H        3.44520000      -2.52430000       0.84380000
H        3.15940000       0.22910000       0.93760000
H        1.03480000      -2.18610000       1.48990000
