16
Properties=species:S:1:pos:R:3 gdb_111727=T pbc="F F F"
O        0.03990000       1.32820000       0.31090000
C        0.04460000      -0.00550000      -0.16460000
C       -1.33880000      -0.62000000      -0.12080000
C       -1.65210000      -2.09840000      -0.14590000
C       -0.66630000      -2.88350000       0.71500000
O       -0.85290000      -1.97430000       1.83840000
C       -1.88140000      -1.28270000       1.12480000
C       -3.06940000      -0.90040000       1.81790000
N       -4.03280000      -0.57540000       2.37030000
H       -0.15800000       1.30460000       1.25310000
H        0.38410000       0.04620000      -1.20430000
H        0.75780000      -0.62800000       0.38970000
H       -2.09460000      -0.03320000      -0.63790000
H       -2.38470000      -2.52850000      -0.81450000
H       -1.02960000      -3.88210000       0.97610000
H        0.37750000      -2.93650000       0.39160000
