16
Properties=species:S:1:pos:R:3 gdb_46727=T pbc="F F F"
O        0.00340000       0.00330000      -0.33010000
C       -0.00400000       1.14940000       0.02680000
O       -1.15190000       1.73640000       0.42910000
C       -1.09220000       3.09670000       0.87920000
C        0.25630000       3.74130000       0.68560000
C        1.09760000       3.45810000      -0.58160000
C        2.30400000       3.78020000       0.31680000
N        1.43520000       2.92900000       1.26040000
C        1.21990000       2.03040000       0.01300000
H       -1.86350000       3.65020000       0.33220000
H       -1.35440000       3.10550000       1.94350000
H        0.23740000       4.77310000       1.05040000
H        0.90240000       3.74280000      -1.62000000
H        3.26190000       3.31330000       0.07550000
H        2.43200000       4.81030000       0.66030000
H        2.09270000       1.43270000      -0.25020000
