21
Properties=species:S:1:pos:R:3 gdb_115949=T pbc="F F F"
C        0.03720000       1.52210000       0.13190000
C       -0.06710000       0.00170000      -0.02980000
C        0.71940000      -0.54460000      -1.22400000
C        2.24260000      -0.31150000      -1.17640000
O        2.81540000      -1.29320000      -2.04220000
C        2.03370000      -2.46370000      -1.95460000
C        2.17180000      -3.29070000      -0.65730000
O        0.90890000      -2.79380000      -0.15840000
C        0.65100000      -2.06560000      -1.38450000
H        1.06900000       1.84080000       0.31520000
H       -0.31510000       2.04360000      -0.76530000
H       -0.56720000       1.86830000       0.97590000
H        0.28570000      -0.50180000       0.87660000
H       -1.12160000      -0.27930000      -0.14300000
H        0.33380000      -0.10580000      -2.15480000
H        2.55560000       0.66850000      -1.54290000
H        2.61550000      -0.43170000      -0.14740000
H        2.11190000      -3.00410000      -2.89870000
H        2.15270000      -4.37900000      -0.79460000
H        3.01790000      -3.01650000      -0.01670000
H       -0.25800000      -2.42230000      -1.87900000
