21
Properties=species:S:1:pos:R:3 gdb_62704=T pbc="F F F"
C       -0.11600000       1.58650000      -0.03610000
C        0.02730000       0.06370000      -0.02480000
C       -1.32820000      -0.60090000       0.23350000
C        0.73190000      -0.58680000      -1.22680000
C        2.23890000      -0.46280000      -1.09470000
O        2.79460000       0.56010000      -0.29370000
C        2.35540000       0.30910000       1.05070000
C        1.13560000      -0.59420000       0.89250000
C        1.54020000      -1.50530000      -0.30040000
H        0.82910000       2.07840000      -0.27230000
H       -0.84930000       1.88780000      -0.79330000
H       -0.47640000       1.95980000       0.93020000
H       -2.04730000      -0.33980000      -0.55140000
H       -1.24070000      -1.69170000       0.25900000
H       -1.74730000      -0.27000000       1.19080000
H        0.26200000      -0.82740000      -2.17610000
H        2.85250000      -0.71220000      -1.95230000
H        3.15280000      -0.18950000       1.62270000
H        2.13370000       1.27050000       1.52410000
H        0.78450000      -1.05240000       1.81770000
H        1.71860000      -2.57200000      -0.30960000
