19
Properties=species:S:1:pos:R:3 gdb_35640=T pbc="F F F"
C        0.36550000      -1.23270000       0.06420000
C        0.17780000      -0.04560000       0.03780000
C       -0.05970000       1.40000000      -0.00650000
C       -0.96980000       1.87140000       1.15510000
C       -0.43890000       1.63820000       2.54550000
C        0.77040000       1.93450000       3.01570000
C        1.94040000       2.57720000       2.32510000
C        2.02960000       2.65310000       0.82660000
C        1.24640000       2.16570000      -0.13300000
H        0.53850000      -2.27980000       0.09200000
H       -0.62330000       1.59860000      -0.92920000
H       -1.16870000       2.93980000       0.99960000
H       -1.93210000       1.36050000       1.05180000
H       -1.14450000       1.19080000       3.24160000
H        0.96300000       1.71440000       4.06460000
H        2.05430000       3.59870000       2.72720000
H        2.85670000       2.07170000       2.66980000
H        2.92560000       3.17660000       0.49370000
H        1.57170000       2.31240000      -1.16030000
