18
Properties=species:S:1:pos:R:3 gdb_44639=T pbc="F F F"
O        0.17590000      -0.03120000      -0.53990000
C        0.06640000       1.11510000      -0.22380000
C       -1.11100000       2.05510000       0.12780000
N       -0.14280000       3.16170000       0.38510000
C        0.41610000       3.31800000       1.77770000
C        0.07370000       2.28770000       2.88950000
C        1.32500000       1.43880000       2.49710000
C        1.68620000       2.48410000       1.40580000
C        1.03590000       2.29390000       0.00900000
H       -1.75940000       2.27240000      -0.72900000
H       -1.74630000       1.74320000       0.96230000
H        0.44340000       4.36580000       2.08230000
H        0.15510000       2.73240000       3.88430000
H       -0.89770000       1.79140000       2.83240000
H        2.06940000       1.37130000       3.29310000
H        1.12890000       0.42840000       2.13110000
H        2.69760000       2.88920000       1.40670000
H        1.63150000       2.59150000      -0.86040000
