17
Properties=species:S:1:pos:R:3 gdb_109576=T pbc="F F F"
O        0.04730000       1.37090000       0.32710000
C        0.06410000       0.01980000      -0.09620000
C       -1.34830000      -0.56780000      -0.06560000
C       -1.59090000      -2.11750000      -0.08830000
O       -0.48620000      -2.81780000       0.42220000
C       -2.68220000      -1.94570000       1.03560000
O       -2.67470000      -2.90030000       2.06140000
C       -2.00520000      -0.60290000       1.31260000
O       -1.79840000      -0.02170000       2.34640000
H       -0.26420000       1.37210000       1.24080000
H        0.46080000       0.01200000      -1.11600000
H        0.72250000      -0.60130000       0.52330000
H       -1.99330000      -0.06400000      -0.79370000
H       -1.93910000      -2.53630000      -1.03840000
H       -0.83860000      -3.41690000       1.09680000
H       -3.68400000      -1.83030000       0.60420000
H       -2.39600000      -2.44950000       2.86940000
