16
Properties=species:S:1:pos:R:3 gdb_125903=T pbc="F F F"
C        0.12860000       1.48310000       0.07930000
C       -0.02830000      -0.03300000      -0.03090000
C        0.72660000      -0.60680000      -1.30000000
C        1.91460000      -1.21450000      -0.63910000
C        1.77330000      -1.23950000       0.70510000
N        0.55410000      -0.73650000       1.17030000
N        2.86030000      -1.86130000       1.23330000
N        3.65050000      -2.20540000       0.30620000
O        3.04420000      -1.80440000      -0.98050000
H        1.18710000       1.76310000       0.11900000
H       -0.32550000       1.98230000      -0.78280000
H       -0.36330000       1.86380000       0.98070000
H       -1.09030000      -0.28490000      -0.09080000
H        0.12280000      -1.35910000      -1.82020000
H        0.96030000       0.18270000      -2.02140000
H        0.62770000      -0.12250000       1.97390000
