19
Properties=species:S:1:pos:R:3 gdb_73350=T pbc="F F F"
C       -0.02920000       1.54130000      -0.00780000
C       -0.00420000       0.01700000       0.01660000
C        0.64600000      -0.63030000      -1.23260000
O        0.19280000      -1.98890000      -1.22400000
C       -1.08810000      -1.99740000      -0.65050000
C       -1.23210000      -1.90560000       0.87980000
C        0.01210000      -1.68190000       1.66780000
C        0.67320000      -0.60930000       1.23250000
C       -1.39130000      -0.68630000      -0.01600000
H        0.98560000       1.95400000      -0.02520000
H       -0.55620000       1.91460000      -0.89280000
H       -0.53210000       1.93720000       0.87950000
H        0.31970000      -0.11980000      -2.15410000
H        1.73950000      -0.64350000      -1.20290000
H       -1.81890000      -2.57380000      -1.20910000
H       -2.09200000      -2.39830000       1.32160000
H        0.33680000      -2.34980000       2.45680000
H        1.64290000      -0.27310000       1.58350000
H       -2.31210000      -0.12970000      -0.14340000
