18
Properties=species:S:1:pos:R:3 gdb_71160=T pbc="F F F"
C        0.04390000       1.57210000       0.00760000
C        0.02210000       0.07140000       0.06550000
C       -1.24580000      -0.79740000      -0.03930000
N       -0.55550000      -1.89430000       0.72740000
C        0.86630000      -1.87370000       0.23570000
C        0.40860000      -0.90360000       1.26610000
C        1.00120000      -0.76650000      -0.77950000
C        1.38590000      -0.70990000      -2.18600000
O        2.27340000      -0.26200000      -1.13520000
H        1.06720000       1.94910000       0.09570000
H       -0.36080000       1.92740000      -0.94760000
H       -0.56120000       2.01130000       0.80710000
H       -2.08030000      -0.43300000       0.56600000
H       -1.60140000      -1.07400000      -1.03950000
H        1.44170000      -2.78350000       0.34100000
H        0.64890000      -0.77490000       2.31310000
H        1.70390000      -1.61380000      -2.70360000
H        0.99960000       0.08020000      -2.82880000
