21
Properties=species:S:1:pos:R:3 gdb_87719=T pbc="F F F"
C        0.05060000       1.56320000      -0.20880000
C       -0.00450000       0.07050000      -0.01300000
O        1.24560000      -0.63840000      -0.09190000
C        0.57320000      -0.61300000       1.15340000
C        1.12820000      -0.01410000       2.45050000
C        0.24520000      -1.03660000       3.22760000
O       -0.94300000      -0.49930000       3.77170000
C        0.06870000      -1.85710000       1.90070000
C       -1.28260000      -2.47030000       1.57350000
H        0.87350000       2.00390000       0.35920000
H        0.19840000       1.80490000      -1.26640000
H       -0.88790000       2.03030000       0.11110000
H       -0.81930000      -0.43510000      -0.53530000
H        2.19930000      -0.20690000       2.56000000
H        0.93420000       1.04090000       2.66370000
H        0.72690000      -1.56700000       4.05080000
H       -1.35050000       0.07350000       3.11330000
H        0.85380000      -2.62170000       1.85400000
H       -2.09300000      -1.74320000       1.68290000
H       -1.30090000      -2.84790000       0.54580000
H       -1.50390000      -3.30830000       2.24190000
