13
Properties=species:S:1:pos:R:3 gdb_53932=T pbc="F F F"
N        0.68480000       0.25170000      -0.85500000
C       -0.03650000       0.11950000       0.27320000
O        0.23150000       0.59860000       1.34940000
C       -1.34060000      -0.79930000       0.15930000
N       -2.24360000      -0.58140000       1.28100000
C       -2.02680000      -0.54130000      -1.11630000
N       -2.52340000      -0.29150000      -2.12880000
C       -0.85780000      -2.19950000       0.16860000
N       -0.43690000      -3.27460000       0.18600000
H        1.53530000       0.79170000      -0.82390000
H        0.38190000      -0.12650000      -1.73710000
H       -1.65450000      -0.34600000       2.08020000
H       -2.81470000       0.23760000       1.09300000
