17
Properties=species:S:1:pos:R:3 gdb_19569=T pbc="F F F"
C        0.03480000       1.49520000      -0.00640000
N        1.27580000       0.67650000       0.04510000
C       -0.01350000       0.02720000       0.01260000
C       -0.58370000      -0.98100000       1.03260000
C       -1.77100000      -1.13150000       0.02600000
C       -0.61840000      -0.95670000      -0.99540000
O        0.17840000      -2.13820000      -0.80260000
C        0.26340000      -2.20300000       0.64650000
H       -0.16610000       2.06980000       0.89420000
H       -0.21130000       2.00900000      -0.93320000
H        1.72240000       0.64080000      -0.86870000
H       -0.71470000      -0.75520000       2.08910000
H       -2.30200000      -2.08530000       0.00020000
H       -2.46100000      -0.28730000       0.05480000
H       -0.74980000      -0.76230000      -2.05900000
H        1.30810000      -2.10990000       0.96280000
H       -0.14550000      -3.15590000       0.99990000
