15
Properties=species:S:1:pos:R:3 gdb_125079=T pbc="F F F"
C        0.01780000       1.52990000       0.01850000
C       -0.04720000       0.03490000       0.03640000
C       -0.05740000      -0.84110000      -1.01660000
N       -0.03340000      -0.57960000      -2.37560000
C        0.19210000      -1.46150000      -3.41930000
O        0.39430000      -2.64160000      -3.31980000
O       -0.12270000      -2.10820000      -0.60060000
N       -0.15630000      -2.11280000       0.80240000
C       -0.11560000      -0.85000000       1.14540000
H        0.60030000       1.89940000      -0.83310000
H       -0.97510000       1.99310000      -0.03420000
H        0.50310000       1.90840000       0.92250000
H       -0.15370000       0.39020000      -2.62610000
H        0.15680000      -0.91860000      -4.38420000
H       -0.12760000      -0.59590000       2.19690000
