16
Properties=species:S:1:pos:R:3 gdb_39530=T pbc="F F F"
C       -0.08520000       1.50900000       0.02780000
C        1.39440000       1.92490000       0.01160000
C        2.28140000       0.91140000      -0.03410000
C        1.54820000      -0.35620000      -0.05250000
C        1.21830000      -1.68110000      -0.76800000
C        1.16690000      -1.58450000       0.74620000
N       -0.31920000      -1.19340000       0.74970000
C       -0.28040000      -1.25140000      -0.77020000
C        0.07250000       0.00700000      -0.07100000
H       -0.58640000       1.82550000       0.95170000
H       -0.64650000       1.95060000      -0.80470000
H        1.67820000       2.97130000       0.05220000
H        3.35750000       1.03210000      -0.03690000
H        1.81960000      -2.31760000      -1.40270000
H        1.66750000      -2.15910000       1.51690000
H       -1.14530000      -1.55150000      -1.35110000
