16
Properties=species:S:1:pos:R:3 gdb_126206=T pbc="F F F"
C       -0.26180000       1.57640000      -0.04480000
C        0.03570000       0.06680000       0.03140000
C        0.79610000      -0.44160000      -1.15230000
C        2.13620000      -0.73350000      -1.37510000
C        3.24290000      -0.64810000      -0.41960000
O        4.39830000      -0.90210000      -0.65950000
N        2.28730000      -1.13900000      -2.67970000
N        1.14190000      -1.11500000      -3.26880000
N        0.22980000      -0.69080000      -2.35160000
H        0.66500000       2.15390000      -0.10000000
H       -0.86130000       1.82110000      -0.92690000
H       -0.81580000       1.89860000       0.84100000
H        0.61080000      -0.14910000       0.93580000
H       -0.90370000      -0.49120000       0.12460000
H        2.92910000      -0.31510000       0.59660000
H       -0.73870000      -0.61430000      -2.62270000
