13
Properties=species:S:1:pos:R:3 gdb_23751=T pbc="F F F"
O        0.08170000       1.37220000      -0.06440000
C        0.05590000       0.01400000      -0.05120000
C        0.02240000      -0.70410000      -1.24300000
C       -0.00370000      -2.09680000      -1.21380000
C        0.00330000      -2.78480000      -0.00270000
C        0.03680000      -2.07430000       1.19760000
C        0.06240000      -0.69430000       1.15210000
F        0.09520000       0.03730000       2.28720000
H        0.10260000       1.67480000       0.85190000
H        0.01740000      -0.15530000      -2.17780000
H       -0.02970000      -2.64640000      -2.14830000
H       -0.01720000      -3.86810000       0.01460000
H        0.04320000      -2.57060000       2.16100000
