16
Properties=species:S:1:pos:R:3 gdb_34696=T pbc="F F F"
C       -0.01460000      -1.28680000      -0.04960000
C       -0.01760000      -0.08410000      -0.02660000
C       -0.00300000       1.36310000       0.02250000
C       -0.22810000       2.10540000       1.37840000
C        0.96280000       1.74800000       2.28640000
C        2.08840000       1.76950000       1.31360000
C        1.35460000       2.13580000       0.01060000
C        0.72560000       3.24920000       0.90740000
N        1.72040000       3.02710000       2.05350000
H       -0.01570000      -2.34830000      -0.07460000
H       -0.66850000       1.78870000      -0.73820000
H       -1.21670000       2.24410000       1.80890000
H        0.97560000       1.23730000       3.24060000
H        3.04170000       1.27690000       1.45510000
H        1.92040000       2.30420000      -0.90230000
H        0.44110000       4.25260000       0.60050000
