19
Properties=species:S:1:pos:R:3 gdb_119322=T pbc="F F F"
O       -0.12780000       1.43760000       0.03810000
C        0.01760000       0.03160000       0.13240000
C       -1.35720000      -0.58440000      -0.11070000
C       -1.36690000      -2.11010000      -0.00840000
C       -1.18550000      -2.76010000       1.38040000
O       -2.46980000      -3.41470000       1.29520000
C       -2.77810000      -2.77370000       0.05020000
C       -0.52380000      -2.72840000      -1.10310000
O        0.35410000      -3.53610000      -0.94120000
H        0.72930000       1.84300000       0.19880000
H        0.73900000      -0.34800000      -0.60970000
H        0.39040000      -0.26890000       1.12500000
H       -2.06300000      -0.16640000       0.61520000
H       -1.70860000      -0.27550000      -1.10390000
H       -0.36030000      -3.47480000       1.45110000
H       -1.14320000      -2.05210000       2.21760000
H       -3.60320000      -2.05410000       0.13820000
H       -3.01520000      -3.49410000      -0.74340000
H       -0.79790000      -2.37700000      -2.12630000
