16
Properties=species:S:1:pos:R:3 gdb_6264=T pbc="F F F"
C       -0.08990000       1.59880000       0.01540000
C        0.00390000       0.08020000      -0.06090000
O        0.87610000      -0.34400000       0.97080000
C       -1.37850000      -0.57980000       0.07860000
C       -1.33130000      -2.09420000      -0.00190000
O       -0.29790000      -2.73480000       0.05820000
C       -2.61340000      -2.75830000      -0.14980000
C       -3.68970000      -3.28340000      -0.27160000
H        0.90750000       2.03540000      -0.07920000
H       -0.72370000       1.99670000      -0.78280000
H       -0.50530000       1.90720000       0.98030000
H        0.41250000      -0.20260000      -1.04540000
H        0.95840000      -1.30140000       0.86840000
H       -1.81850000      -0.31880000       1.05190000
H       -2.07950000      -0.21200000      -0.68090000
H       -4.63150000      -3.76500000      -0.37940000
