16
Properties=species:S:1:pos:R:3 gdb_47244=T pbc="F F F"
O       -0.03350000      -0.08590000       0.08730000
C       -0.00240000       1.11180000      -0.04640000
N       -1.20670000       1.79250000      -0.29730000
C       -1.76110000       3.05840000      -0.11010000
C       -1.33810000       4.20810000       0.45100000
C       -0.05870000       4.57290000       1.03130000
C        1.13950000       4.10810000       0.65720000
C        1.29680000       3.13790000      -0.46760000
O        1.16350000       1.76180000      -0.02720000
H       -1.90650000       1.07990000      -0.44530000
H       -2.78700000       3.05060000      -0.46720000
H       -2.10500000       4.97660000       0.49260000
H       -0.10440000       5.31680000       1.82430000
H        2.03580000       4.42720000       1.17890000
H        0.57440000       3.33650000      -1.26440000
H        2.30160000       3.17650000      -0.89210000
