19
Properties=species:S:1:pos:R:3 gdb_91873=T pbc="F F F"
C       -0.10760000       1.52910000       0.04000000
C       -0.02010000       0.00720000      -0.04300000
C        0.80470000      -0.48050000      -1.24930000
C        0.90090000      -1.99140000      -1.17600000
C        2.18410000      -2.70030000      -0.87730000
N        1.16720000      -2.53970000       0.15290000
C        1.38880000      -1.64650000       1.22500000
O        2.15340000      -1.88500000       2.13570000
N        0.59700000      -0.52310000       1.17410000
H        0.89070000       1.97500000       0.10590000
H       -0.60700000       1.93210000      -0.84570000
H       -0.68240000       1.84080000       0.91850000
H       -1.04010000      -0.39380000      -0.14260000
H        0.33360000      -0.16690000      -2.18540000
H        1.79770000      -0.01860000      -1.20340000
H        0.13390000      -2.53780000      -1.72210000
H        2.33950000      -3.71680000      -1.22740000
H        3.08820000      -2.10290000      -0.78720000
H        0.73480000       0.10220000       1.95310000
