17
Properties=species:S:1:pos:R:3 gdb_70224=T pbc="F F F"
O        0.00350000       1.43450000      -0.10880000
C        0.04460000       0.03780000      -0.04790000
C       -0.52460000      -0.74480000      -1.22200000
C       -1.28560000      -0.62190000       0.07880000
O       -1.48800000      -1.72210000       0.93980000
C       -0.45450000      -2.41660000       1.48780000
O       -0.69610000      -3.30450000       2.25700000
C        0.95410000      -2.04250000       1.04990000
C        1.16250000      -0.54520000       0.78980000
H        0.71400000       1.72860000      -0.69040000
H       -0.90800000      -0.17090000      -2.05810000
H       -0.09160000      -1.70330000      -1.48520000
H       -2.16750000       0.00640000       0.08870000
H        1.63130000      -2.41420000       1.82030000
H        1.16910000      -2.62160000       0.14370000
H        2.13700000      -0.38010000       0.31410000
H        1.17460000       0.00210000       1.73950000
