21
Properties=species:S:1:pos:R:3 gdb_94725=T pbc="F F F"
C       -0.31360000       1.49840000      -0.01180000
C        0.05460000       0.02430000      -0.03230000
C       -1.03700000      -0.95420000       0.47190000
O       -0.17760000      -1.46820000       1.51660000
C        0.89300000      -0.56490000       1.13640000
C        2.05320000      -1.36820000       0.53220000
O        2.38160000      -2.49500000       1.31250000
C        1.57480000      -1.68590000      -0.90380000
C        0.77020000      -0.44210000      -1.31790000
H        0.57240000       2.12780000      -0.15000000
H       -1.01670000       1.73820000      -0.81810000
H       -0.78400000       1.78170000       0.93550000
H       -1.92970000      -0.47480000       0.89240000
H       -1.34880000      -1.73830000      -0.22940000
H        1.18120000       0.08360000       1.97000000
H        2.95080000      -0.73810000       0.49520000
H        1.53300000      -2.87290000       1.58220000
H        2.40150000      -1.91520000      -1.58000000
H        0.93070000      -2.57240000      -0.86750000
H        0.06880000      -0.63370000      -2.13690000
H        1.44750000       0.35120000      -1.65820000
