14
Properties=species:S:1:pos:R:3 gdb_128890=T pbc="F F F"
N       -0.75140000      -1.18950000      -0.21440000
C       -0.38010000      -0.09990000      -0.11980000
C        0.05420000       1.28750000       0.01530000
C       -0.16950000       1.97990000       1.43720000
C        1.34330000       2.15510000       1.44110000
C        2.59320000       2.63120000       1.77670000
C        3.39480000       2.17480000       0.68880000
N        2.71430000       1.50030000      -0.25190000
N        1.48390000       1.49930000       0.27680000
H       -0.32410000       1.87870000      -0.82360000
H       -0.76220000       2.89470000       1.38320000
H       -0.58500000       1.31170000       2.19290000
H        2.91170000       3.19810000       2.63470000
H        4.45910000       2.31360000       0.56310000
