18
Properties=species:S:1:pos:R:3 gdb_102069=T pbc="F F F"
C       -0.29300000       1.28940000      -0.22150000
O        0.05350000      -0.08900000      -0.21730000
C        0.62480000      -0.54030000       0.99830000
C       -0.52830000      -0.74760000       1.98530000
O       -0.77910000       0.00490000       2.88820000
C        1.36470000      -1.85270000       0.66940000
C        2.51110000      -1.63440000      -0.33520000
C        1.84990000      -2.47730000       1.90360000
N        2.23780000      -2.96170000       2.87850000
H        0.59560000       1.91950000      -0.07860000
H       -0.72910000       1.49620000      -1.20050000
H       -1.02390000       1.53320000       0.55930000
H        1.31760000       0.20200000       1.41930000
H       -1.18080000      -1.61710000       1.74380000
H        0.62590000      -2.53180000       0.22400000
H        3.28510000      -0.99230000       0.09430000
H        2.96950000      -2.58740000      -0.60850000
H        2.11280000      -1.15820000      -1.23210000
