19
Properties=species:S:1:pos:R:3 gdb_78503=T pbc="F F F"
C       -0.01900000       1.60330000       0.02210000
C        0.09170000       0.08460000      -0.02810000
C        0.82820000      -0.61910000      -1.16770000
C        2.33340000      -0.75720000      -0.75400000
O        3.31630000      -1.01660000      -1.68550000
C        2.48760000      -0.11980000       0.62250000
C        1.06740000      -0.68560000       0.92200000
C        1.29700000      -1.73150000      -0.26790000
O        1.11360000      -3.08030000      -0.40030000
H        0.94600000       2.09550000      -0.12840000
H       -0.69480000       1.96470000      -0.76130000
H       -0.42200000       1.93760000       0.98500000
H       -0.90570000      -0.35940000       0.07310000
H        0.56650000      -0.70320000      -2.21600000
H        3.41820000      -0.24350000      -2.25140000
H        3.25420000      -0.63700000       1.20760000
H        2.63480000       0.96220000       0.70500000
H        0.77860000      -0.92430000       1.94360000
H        1.89150000      -3.53290000      -0.05440000
