25
Properties=species:S:1:pos:R:3 gdb_104878=T pbc="F F F"
C       -0.06970000       1.48380000       0.14250000
C        0.06660000      -0.03640000       0.01560000
C        0.66050000      -0.53450000      -1.32220000
C        2.15000000      -0.15570000      -1.44070000
C        2.77390000      -0.39360000      -2.81860000
C        0.39820000      -2.05160000      -1.48800000
C       -0.91510000      -2.10260000      -2.28190000
C       -0.77490000      -0.86750000      -3.17380000
O       -0.06890000       0.09610000      -2.40060000
H        0.90180000       1.98660000       0.17350000
H       -0.63030000       1.88590000      -0.70480000
H       -0.60030000       1.74470000       1.06350000
H        0.68350000      -0.43070000       0.83370000
H       -0.92590000      -0.48900000       0.13360000
H        2.25900000       0.90530000      -1.19230000
H        2.70330000      -0.70980000      -0.67120000
H        3.80810000      -0.03620000      -2.83690000
H        2.79340000      -1.45300000      -3.09420000
H        2.21360000       0.14610000      -3.58630000
H        1.20080000      -2.52510000      -2.06080000
H        0.33860000      -2.55900000      -0.52190000
H       -1.04160000      -3.02670000      -2.85180000
H       -1.77820000      -1.99690000      -1.61660000
H       -0.21010000      -1.10960000      -4.08810000
H       -1.73380000      -0.43330000      -3.47590000
