20
Properties=species:S:1:pos:R:3 gdb_54830=T pbc="F F F"
C       -0.08350000       1.34830000       0.06860000
C       -0.02790000      -0.16860000      -0.00910000
O        0.95710000      -0.80950000       0.29750000
N       -1.16290000      -0.75700000      -0.54150000
C       -2.53960000      -0.61310000      -0.08840000
C       -3.43970000      -1.06520000      -1.24480000
C       -2.69990000      -2.44960000      -1.23140000
C       -1.82990000      -1.95400000      -0.05600000
C       -1.29900000      -2.77380000       1.07840000
H        0.92980000       1.74380000      -0.01140000
H       -0.71990000       1.77430000      -0.71040000
H       -0.48860000       1.65220000       1.04090000
H       -2.77790000       0.05480000       0.73220000
H       -4.48860000      -1.15310000      -0.95410000
H       -3.36380000      -0.47140000      -2.15860000
H       -3.36240000      -3.26930000      -0.94380000
H       -2.14970000      -2.72580000      -2.13340000
H       -0.45240000      -3.38540000       0.75180000
H       -0.94410000      -2.14100000       1.89510000
H       -2.08060000      -3.43750000       1.46180000
