15
Properties=species:S:1:pos:R:3 gdb_123372=T pbc="F F F"
C        0.30570000       0.00120000      -1.29510000
C        0.11710000       0.61300000      -0.27790000
C       -0.07820000       1.36240000       0.97020000
N        1.02490000       2.22880000       1.36210000
C        1.36600000       3.28950000       0.53530000
C        0.63220000       3.96710000      -0.41620000
N        1.48830000       4.94440000      -0.82540000
N        2.66140000       4.88030000      -0.19290000
N        2.59410000       3.87340000       0.63720000
H        0.47150000      -0.54080000      -2.19330000
H       -0.98590000       1.97440000       0.89360000
H       -0.25870000       0.66260000       1.79300000
H        1.84780000       1.73010000       1.67380000
H       -0.35200000       3.84070000      -0.82960000
H        1.34080000       5.65830000      -1.52020000
