17
Properties=species:S:1:pos:R:3 gdb_61427=T pbc="F F F"
C        0.92800000       1.68690000      -0.33330000
C        0.20650000       0.38010000      -0.02960000
O        0.46610000      -0.59540000      -1.06300000
C       -0.44980000      -0.66340000      -2.07120000
N       -0.07170000      -1.62310000      -2.96750000
O       -1.45660000      -0.00160000      -2.13780000
C        0.62370000      -0.19260000       1.33130000
N        0.91350000      -1.51770000       1.35130000
O        0.65100000       0.52390000       2.31340000
H        1.99720000       1.51100000      -0.48530000
H        0.50970000       2.14630000      -1.23190000
H        0.80270000       2.36440000       0.51280000
H       -0.87330000       0.55090000       0.00450000
H        0.88710000      -1.92800000      -2.97190000
H       -0.56370000      -1.62020000      -3.84490000
H        0.92820000      -2.05460000       0.50300000
H        1.18870000      -1.93500000       2.22450000
