23
Properties=species:S:1:pos:R:3 gdb_89149=T pbc="F F F"
C        0.39070000       1.63350000       0.03590000
C        0.09740000       0.14130000       0.03220000
C        0.87240000      -0.77970000      -0.96700000
C        1.26330000      -1.74020000       0.20130000
C        0.87390000      -3.19550000       0.07630000
C        2.59480000      -1.38820000       0.90850000
C        3.83680000      -0.95730000       0.15710000
O        1.95810000      -0.30540000       1.63910000
C        0.64440000      -0.71340000       1.19890000
H        1.45070000       1.81310000       0.23430000
H        0.13550000       2.08530000      -0.92870000
H       -0.18630000       2.15070000       0.81060000
H       -0.98100000      -0.03260000      -0.06170000
H        0.24400000      -1.24950000      -1.72800000
H        1.71170000      -0.29930000      -1.47610000
H        1.47640000      -3.69880000      -0.69030000
H        1.01930000      -3.73280000       1.02000000
H       -0.17700000      -3.30470000      -0.21340000
H        2.86390000      -2.19180000       1.61360000
H        3.62890000      -0.14900000      -0.54820000
H        4.59270000      -0.60060000       0.86420000
H        4.26260000      -1.80360000      -0.39320000
H       -0.01390000      -0.96090000       2.03840000
