19
Properties=species:S:1:pos:R:3 gdb_117793=T pbc="F F F"
C        0.00220000       1.39520000       0.34390000
N       -0.06570000      -0.03620000       0.06170000
C       -1.40620000      -0.52880000      -0.23440000
C       -1.38960000      -2.06960000      -0.13140000
O       -0.79850000      -2.44840000       1.09530000
C       -2.80070000      -2.67860000      -0.14090000
O       -2.76090000      -4.07240000       0.02790000
C       -0.58850000      -2.60930000      -1.26400000
N        0.06590000      -2.96540000      -2.14770000
H        1.04210000       1.67790000       0.52740000
H       -0.39010000       2.02820000      -0.46820000
H       -0.57150000       1.61580000       1.24990000
H        0.55280000      -0.26290000      -0.71180000
H       -2.08380000      -0.15460000       0.54100000
H       -1.80060000      -0.21190000      -1.21270000
H       -0.10620000      -1.78140000       1.24980000
H       -3.37080000      -2.18000000       0.65860000
H       -3.29350000      -2.47990000      -1.09720000
H       -2.23040000      -4.24070000       0.81620000
