22
Properties=species:S:1:pos:R:3 gdb_101579=T pbc="F F F"
C        0.04350000       1.56150000      -0.05490000
C        0.10750000       0.03250000      -0.03000000
C        0.69400000      -0.53590000       1.26020000
C        0.68780000      -2.05970000       1.30510000
O        2.05940000      -0.05050000       1.32690000
C        2.62490000       0.05910000       2.53080000
N        2.04310000      -0.24510000       3.61800000
O        3.87260000       0.54000000       2.32230000
C        4.68350000       0.73650000       3.46890000
H        1.04220000       1.99290000       0.05160000
H       -0.38410000       1.92150000      -0.99540000
H       -0.57760000       1.94430000       0.76260000
H       -0.89810000      -0.38820000      -0.14880000
H        0.70240000      -0.33400000      -0.87580000
H        0.16180000      -0.13930000       2.13040000
H       -0.33970000      -2.43170000       1.24190000
H        1.25640000      -2.47250000       0.46550000
H        1.12380000      -2.41330000       2.24130000
H        2.62460000      -0.08020000       4.43210000
H        4.84930000      -0.20380000       4.00850000
H        5.63780000       1.11440000       3.10060000
H        4.24160000       1.47270000       4.15130000
