17
Properties=species:S:1:pos:R:3 gdb_48128=T pbc="F F F"
N        0.04470000       1.46630000       0.39730000
C        0.04710000       0.19280000       0.19160000
C       -1.34780000      -0.38530000       0.15990000
O       -1.65920000      -1.53710000      -0.01230000
N        1.13550000      -0.61330000       0.01350000
C        2.50480000      -0.06660000       0.04150000
C        3.42710000      -1.29220000      -0.19720000
C        2.44900000      -2.43490000      -0.33860000
C        1.19510000      -2.00120000      -0.21320000
H        0.98410000       1.86170000       0.41960000
H       -2.08960000       0.41920000       0.32260000
H        2.61490000       0.69720000      -0.73680000
H        2.69170000       0.41530000       1.00790000
H        4.04390000      -1.16060000      -1.09340000
H        4.12050000      -1.44030000       0.63840000
H        2.73450000      -3.46090000      -0.51680000
H        0.26900000      -2.54870000      -0.26080000
