20
Properties=species:S:1:pos:R:3 gdb_77407=T pbc="F F F"
C       -0.03290000       1.53760000      -0.00980000
C        0.01280000       0.03680000      -0.01200000
C        0.58890000      -0.80870000      -1.11740000
N        2.06450000      -0.85670000      -0.93400000
C        1.19170000      -1.75610000      -0.13220000
C        0.64720000      -0.96130000       1.02540000
C        1.37970000      -0.69010000       2.30760000
C       -0.85650000      -0.85320000       0.85530000
O       -1.63290000      -0.29330000       1.87010000
H        0.95450000       1.95410000      -0.23090000
H       -0.73620000       1.90850000      -0.76510000
H       -0.35800000       1.94700000       0.95300000
H        0.14400000      -1.03100000      -2.08120000
H        2.43580000      -1.41900000      -1.70210000
H        1.29110000      -2.83340000      -0.20710000
H        2.37510000      -0.28260000       2.10600000
H        0.85050000       0.02270000       2.94920000
H        1.50060000      -1.61110000       2.89060000
H       -1.41340000      -1.67310000       0.40720000
H       -1.16220000       0.44890000       2.26130000
