17
Properties=species:S:1:pos:R:3 gdb_37978=T pbc="F F F"
C       -0.05000000       1.43010000      -0.03950000
O        1.19440000       2.06110000       0.04820000
C        1.92170000       2.16530000      -1.15870000
C        2.18780000       0.85030000      -1.87530000
O        2.71960000      -0.19600000      -1.02130000
C        1.72530000      -1.10360000      -1.48110000
C        0.34260000      -0.65070000      -1.14010000
O        0.02440000       0.02880000       0.03550000
C        1.02570000      -0.03840000      -2.33430000
H       -0.61160000       1.74010000       0.84460000
H       -0.57840000       1.73830000      -0.95700000
H        1.41270000       2.83700000      -1.87240000
H        2.87420000       2.62960000      -0.88390000
H        2.88390000       1.03800000      -2.70460000
H        2.02510000      -2.12690000      -1.67680000
H       -0.42050000      -1.37630000      -1.42040000
H        0.62270000      -0.06240000      -3.33820000
