18
Properties=species:S:1:pos:R:3 gdb_107091=T pbc="F F F"
O        0.36130000       0.64590000      -0.91230000
C       -0.22370000       0.33590000       0.34230000
C       -1.49400000      -0.45310000       0.21340000
C       -2.01810000      -1.37050000       1.27960000
C       -1.69020000      -1.95110000      -0.06800000
C       -2.83190000      -1.64040000      -1.05710000
C       -2.61860000      -0.10480000      -0.77220000
C       -2.54910000      -2.02620000      -2.43030000
N       -2.30260000      -2.33460000      -3.51730000
H        0.54710000      -0.18460000      -1.36420000
H        0.47860000      -0.20390000       0.99830000
H       -0.42490000       1.30450000       0.81540000
H       -1.31380000      -1.62570000       2.06540000
H       -3.05050000      -1.29720000       1.61480000
H       -0.96010000      -2.74010000      -0.20060000
H       -3.80890000      -2.04210000      -0.76880000
H       -3.48420000       0.42650000      -0.36630000
H       -2.24410000       0.42080000      -1.65050000
