21
Properties=species:S:1:pos:R:3 gdb_118358=T pbc="F F F"
C        0.08050000       1.38350000       0.03660000
O        0.00990000      -0.02280000       0.00750000
C        0.71660000      -0.59150000      -1.07150000
C        0.53340000      -2.10530000      -1.01060000
C       -0.94330000      -2.46160000      -1.09090000
O       -1.48850000      -3.28570000      -0.40600000
C        1.27000000      -2.79800000      -2.14930000
C        2.71130000      -3.21520000      -1.97660000
C        1.62450000      -4.25830000      -2.03860000
H        1.11870000       1.73670000       0.13800000
H       -0.34710000       1.83270000      -0.87360000
H       -0.49440000       1.72150000       0.90180000
H        0.33260000      -0.20210000      -2.03240000
H        1.78760000      -0.33600000      -1.02570000
H        0.90430000      -2.48100000      -0.05120000
H       -1.50050000      -1.91540000      -1.89010000
H        0.99020000      -2.44770000      -3.14020000
H        3.37970000      -3.11330000      -2.82440000
H        3.17960000      -3.02690000      -1.01620000
H        1.35400000      -4.76920000      -1.12100000
H        1.54880000      -4.87310000      -2.92830000
