18
Properties=species:S:1:pos:R:3 gdb_42398=T pbc="F F F"
O        0.09480000       0.22740000      -0.82720000
C        0.04180000       1.24540000      -0.16550000
C        1.21560000       1.74530000       0.65710000
C        2.47750000       0.94560000       0.44560000
C        3.54590000       1.40470000      -0.44740000
O        3.67310000       1.52230000       0.97220000
C       -1.20960000       2.06490000      -0.11810000
C       -1.84830000       2.36950000      -1.44160000
N       -2.45970000       1.41240000      -0.53320000
H        1.38920000       2.80670000       0.43940000
H        0.91900000       1.71060000       1.71590000
H        2.37930000      -0.12580000       0.61110000
H        4.20560000       0.67900000      -0.91960000
H        3.43070000       2.34560000      -0.98480000
H       -1.29850000       2.78600000       0.68910000
H       -2.37760000       3.31050000      -1.55970000
H       -1.33950000       1.99740000      -2.32660000
H       -2.20760000       0.47090000      -0.83810000
