18
Properties=species:S:1:pos:R:3 gdb_11308=T pbc="F F F"
O       -0.02470000       1.44880000      -0.00560000
C        0.05850000       0.03460000       0.03100000
C        0.61520000      -0.55100000       1.33980000
C        0.05110000      -1.97560000       1.35170000
C       -1.41250000      -1.79920000       0.85450000
C       -1.36540000      -0.55360000      -0.07930000
C       -1.90230000      -3.03560000       0.14110000
O       -2.79150000      -3.75580000       0.51250000
H        0.87020000       1.80270000       0.00150000
H        0.67060000      -0.33010000      -0.80960000
H        1.70790000      -0.51770000       1.39780000
H        0.21250000       0.03080000       2.17750000
H        0.61200000      -2.60480000       0.64710000
H        0.09810000      -2.46450000       2.32730000
H       -2.07650000      -1.62520000       1.70460000
H       -2.08180000       0.20320000       0.24920000
H       -1.61540000      -0.80280000      -1.11550000
H       -1.34400000      -3.25290000      -0.80370000
