16
Properties=species:S:1:pos:R:3 gdb_74648=T pbc="F F F"
N       -0.02200000       1.33560000       0.13630000
C       -0.04630000      -0.02240000       0.03740000
N       -1.06610000      -0.80580000       0.04060000
C       -0.39370000      -2.11990000      -0.02670000
C        0.89000000      -2.13660000       0.85810000
N        1.55380000      -3.07320000      -0.11850000
C        0.84580000      -2.05600000      -0.97690000
C        1.21480000      -0.86630000      -0.02490000
O        2.47720000      -0.28650000      -0.10530000
H        0.79400000       1.78830000      -0.24730000
H       -0.89740000       1.81160000      -0.02780000
H       -1.03910000      -2.99320000      -0.04850000
H        0.97690000      -2.24610000       1.94260000
H        2.55710000      -2.86750000      -0.13820000
H        0.87930000      -2.07100000      -2.06850000
H        2.72610000       0.03130000       0.76970000
