14
Properties=species:S:1:pos:R:3 gdb_11228=T pbc="F F F"
N        0.02070000       1.40290000      -0.22790000
C       -0.04160000       0.04450000      -0.10220000
N       -1.04970000      -0.63780000       0.28020000
C       -0.66200000      -2.05060000       0.12840000
C        0.85050000      -1.99290000      -0.27530000
O        1.09670000      -0.59230000      -0.49290000
C       -0.88830000      -2.83940000       1.33750000
C       -1.04810000      -3.51210000       2.32020000
H        0.94230000       1.80440000      -0.15330000
H       -0.70530000       1.89690000       0.26640000
H       -1.25240000      -2.49770000      -0.68350000
H        1.50540000      -2.34760000       0.52460000
H        1.07230000      -2.53270000      -1.19820000
H       -1.20410000      -4.09720000       3.19250000
