19
Properties=species:S:1:pos:R:3 gdb_90296=T pbc="F F F"
C        0.23600000       1.47780000      -0.08340000
C       -0.03950000      -0.01460000       0.08230000
O        0.41600000      -0.71410000      -1.10520000
C        1.24990000      -1.76830000      -0.71110000
C        2.83650000      -1.73100000      -0.78430000
O        3.27660000      -0.40960000      -0.95910000
C        2.84410000      -2.21560000       0.72750000
C        1.43570000      -1.66430000       0.76460000
C        0.75460000      -0.62560000       1.23080000
H        1.31170000       1.64270000      -0.18740000
H       -0.26370000       1.85110000      -0.98190000
H       -0.13670000       2.04070000       0.77900000
H       -1.12520000      -0.17880000       0.17060000
H        0.88680000      -2.72540000      -1.11010000
H        3.30010000      -2.41990000      -1.50340000
H        4.22250000      -0.38340000      -0.78420000
H        2.91170000      -3.30560000       0.79670000
H        3.58300000      -1.75780000       1.38910000
H        0.85750000      -0.12790000       2.18720000
