22
Properties=species:S:1:pos:R:3 gdb_101301=T pbc="F F F"
C        0.14880000       1.35580000      -0.22040000
C       -0.09880000      -0.15450000      -0.28550000
C       -1.56340000      -0.57720000      -0.03060000
C       -2.51370000      -0.11910000      -1.14500000
C       -1.62020000      -2.06850000       0.28760000
C       -2.79830000      -2.95950000      -0.01530000
N       -1.55080000      -3.11790000      -0.71660000
C       -1.36080000      -3.07260000      -2.07900000
O       -2.13350000      -3.50530000      -2.90180000
H        1.21210000       1.57930000      -0.34970000
H       -0.39470000       1.89770000      -1.00010000
H       -0.16100000       1.76510000       0.74780000
H        0.21980000      -0.53780000      -1.26360000
H        0.54110000      -0.64940000       0.45590000
H       -1.88220000      -0.08360000       0.90020000
H       -2.30510000      -0.61540000      -2.09790000
H       -3.55860000      -0.31150000      -0.88750000
H       -2.41660000       0.95710000      -1.30900000
H       -1.05470000      -2.31880000       1.18610000
H       -3.06190000      -3.75180000       0.68080000
H       -3.62940000      -2.55330000      -0.58420000
H       -0.36550000      -2.66510000      -2.34050000
