21
Properties=species:S:1:pos:R:3 gdb_97597=T pbc="F F F"
C        0.24090000       1.46750000       0.32730000
C       -0.30700000       0.13700000      -0.22070000
C        0.45100000      -0.36860000      -1.36140000
C        1.10190000      -0.76350000      -2.29570000
C        1.86130000      -1.26340000      -3.44100000
C        2.25300000      -2.74120000      -3.25780000
C        1.05110000      -1.03940000      -4.75340000
C        1.80300000      -1.37340000      -5.95620000
C        2.44470000      -1.64530000      -6.93600000
H        1.27730000       1.35400000       0.65670000
H        0.21560000       2.24410000      -0.44200000
H       -0.35720000       1.80540000       1.17890000
H       -0.30710000      -0.61520000       0.57880000
H       -1.35810000       0.26590000      -0.51000000
H        2.78400000      -0.67520000      -3.53180000
H        2.82640000      -3.09030000      -4.12070000
H        2.85840000      -2.86920000      -2.35700000
H        1.35980000      -3.36580000      -3.15660000
H        0.13300000      -1.63790000      -4.70580000
H        0.73380000       0.00850000      -4.79630000
H        2.99880000      -1.88340000      -7.80980000
