22
Properties=species:S:1:pos:R:3 gdb_8242=T pbc="F F F"
C        0.05280000       1.56370000      -0.01890000
C        0.02560000       0.03450000      -0.00060000
O        0.74420000      -0.47590000       1.12290000
C       -1.40060000      -0.52700000      -0.07200000
C       -1.47710000      -2.04840000      -0.10820000
C       -1.21750000      -2.88060000       1.18030000
C       -2.35600000      -3.84120000       0.74530000
C       -2.87450000      -2.72550000      -0.20190000
H        1.08220000       1.92520000       0.05310000
H       -0.39280000       1.95980000      -0.93720000
H       -0.51290000       1.97200000       0.82830000
H        0.58940000      -0.33940000      -0.86530000
H        0.29050000      -0.17560000       1.91840000
H       -1.97780000      -0.14930000       0.78700000
H       -1.88930000      -0.11730000      -0.96720000
H       -0.83660000      -2.42400000      -0.91620000
H       -0.21670000      -3.28850000       1.33040000
H       -1.49600000      -2.31430000       2.07580000
H       -1.97130000      -4.69910000       0.18570000
H       -3.03650000      -4.21050000       1.51630000
H       -3.64180000      -2.11290000       0.28430000
H       -3.23930000      -3.01340000      -1.19160000
