14
Properties=species:S:1:pos:R:3 gdb_66673=T pbc="F F F"
O        0.29090000       1.33880000       0.22790000
C        0.15380000      -0.00940000       0.09060000
C        0.90410000      -1.08690000       0.83720000
C       -0.34390000      -2.01260000       0.76020000
C       -1.11370000      -0.94340000       0.02150000
C       -0.27880000      -1.96140000      -0.77380000
C       -0.70650000      -2.90430000      -1.73950000
N       -1.04710000      -3.67330000      -2.53640000
C        0.96750000      -1.03030000      -0.69620000
H        0.13170000       1.75900000      -0.62590000
H        1.70840000      -1.00480000       1.55360000
H       -0.70240000      -2.81880000       1.38570000
H       -2.17960000      -0.77190000      -0.04440000
H        1.82250000      -0.91500000      -1.34700000
