20
Properties=species:S:1:pos:R:3 gdb_23384=T pbc="F F F"
C        0.50430000       1.32070000       0.04570000
C       -0.00990000      -0.09090000       0.16930000
N       -0.36810000      -0.61900000       1.27850000
O       -0.19510000       0.27530000       2.35090000
C       -0.13130000      -0.90800000      -1.07250000
C        1.04200000      -1.55560000      -1.77750000
C        2.03000000      -2.16200000      -0.77110000
C        0.87970000      -3.05320000      -0.20050000
C       -0.09750000      -2.40330000      -1.19000000
H        1.45700000       1.42880000       0.57580000
H        0.65400000       1.59300000      -1.00060000
H       -0.19120000       2.02470000       0.51230000
H       -0.51480000      -0.24310000       3.09650000
H       -0.81170000      -0.45130000      -1.79230000
H        1.26310000      -1.32830000      -2.81410000
H        2.81520000      -2.74990000      -1.25090000
H        2.50010000      -1.45970000      -0.07550000
H        1.04220000      -4.10950000      -0.42680000
H        0.63690000      -2.94070000       0.85670000
H       -0.88900000      -2.92770000      -1.71290000
