19
Properties=species:S:1:pos:R:3 gdb_59854=T pbc="F F F"
C        0.04430000       1.47240000      -0.02700000
C       -0.00120000      -0.05160000      -0.00260000
C       -1.40840000      -0.62050000      -0.09480000
O        0.71410000      -0.57460000      -1.15870000
C        2.03110000      -0.68220000      -1.05850000
O        2.69020000      -0.38840000      -0.08340000
C        2.67940000      -1.22610000      -2.32530000
N        4.00500000      -1.49920000      -2.10790000
N        1.97960000      -1.38220000      -3.38140000
H        1.07420000       1.82910000       0.04320000
H       -0.40390000       1.85450000      -0.94930000
H       -0.51600000       1.87490000       0.82250000
H        0.51000000      -0.42070000       0.89110000
H       -1.90300000      -0.28210000      -1.01000000
H       -1.38570000      -1.71330000      -0.10010000
H       -2.00120000      -0.28960000       0.76310000
H        4.40220000      -1.11190000      -1.26530000
H        4.61320000      -1.61550000      -2.90080000
H        2.55230000      -1.74070000      -4.14960000
