23
Properties=species:S:1:pos:R:3 gdb_113383=T pbc="F F F"
C       -1.90350000      -0.09010000      -3.40530000
C       -1.16310000      -0.58990000      -2.15820000
C       -2.11550000      -1.13740000      -1.11410000
C       -2.56350000      -2.58510000      -1.11810000
C       -1.73340000      -2.04600000       0.02640000
C       -0.31240000      -2.51890000       0.21480000
O       -0.32150000      -3.88350000       0.63270000
O       -2.41110000      -1.73340000       1.21440000
C       -2.84270000      -2.84450000       1.98590000
H       -1.20440000       0.29850000      -4.15220000
H       -2.48060000      -0.89710000      -3.86840000
H       -2.60320000       0.71380000      -3.15190000
H       -0.44400000      -1.36130000      -2.45660000
H       -0.57450000       0.23190000      -1.72950000
H       -2.89030000      -0.43570000      -0.81460000
H       -3.60690000      -2.80310000      -0.92180000
H       -2.07960000      -3.26840000      -1.80920000
H        0.25030000      -2.40900000      -0.72230000
H        0.16340000      -1.87730000       0.97140000
H        0.58240000      -4.13200000       0.84890000
H       -3.47110000      -3.52540000       1.39530000
H       -2.00160000      -3.41860000       2.38710000
H       -3.43650000      -2.43620000       2.80810000
