16
Properties=species:S:1:pos:R:3 gdb_33477=T pbc="F F F"
C        0.05460000      -1.22670000      -0.06130000
C        0.03140000      -0.02630000      -0.02680000
C        0.00130000       1.42980000       0.01860000
C       -0.23540000       2.10390000       1.45190000
C        1.11980000       2.79640000       1.31030000
N        2.12000000       1.70840000       1.19330000
C        1.38150000       2.15570000      -0.00100000
C       -0.90000000       1.98080000      -0.98770000
C       -1.62830000       2.46230000      -1.81320000
H        0.08090000      -2.28770000      -0.09200000
H       -1.09150000       2.77740000       1.42810000
H       -0.31660000       1.39810000       2.27970000
H        1.39870000       3.77870000       1.66860000
H        3.04300000       2.13930000       1.14790000
H        1.88180000       2.51380000      -0.89140000
H       -2.27830000       2.87110000      -2.54680000
