16
Properties=species:S:1:pos:R:3 gdb_88221=T pbc="F F F"
C        1.01890000       1.20290000      -0.54170000
C        0.11790000       0.10040000      -0.05620000
O        0.73300000      -1.09000000       0.42850000
C        0.00060000      -0.28700000       1.37120000
C        0.74650000       0.36860000       2.40840000
C        1.34310000       0.91520000       3.30320000
C        2.00790000       1.59730000       4.40560000
N        3.36030000       1.41220000       4.43020000
O        1.40560000       2.27760000       5.21290000
H        1.84310000       1.37030000       0.15440000
H        1.43340000       0.94510000      -1.52150000
H        0.45380000       2.13460000      -0.64810000
H       -0.76920000      -0.08380000      -0.66550000
H       -0.93820000      -0.73290000       1.69880000
H        3.80900000       0.75470000       3.81610000
H        3.87360000       1.78890000       5.21050000
