20
Properties=species:S:1:pos:R:3 gdb_118454=T pbc="F F F"
C       -0.02490000       0.74190000       0.98620000
O       -1.29720000       0.29810000       0.57060000
C       -1.28870000      -0.41930000      -0.65130000
C       -0.92760000      -1.90490000      -0.46910000
C       -1.95190000      -2.59460000       0.43470000
O       -1.42360000      -3.85220000       0.86970000
C       -0.74350000      -2.56160000      -1.84990000
N       -0.80120000      -3.91880000      -1.85360000
O       -0.54740000      -1.90310000      -2.85710000
H       -0.17090000       1.33580000       1.89190000
H        0.65930000      -0.08710000       1.22210000
H        0.45160000       1.37180000       0.21980000
H       -2.30110000      -0.33420000      -1.06140000
H       -0.60330000       0.03020000      -1.37780000
H        0.04330000      -1.97440000       0.04100000
H       -2.14430000      -1.94100000       1.29380000
H       -2.89760000      -2.73570000      -0.11010000
H       -2.08220000      -4.27940000       1.42550000
H       -0.92750000      -4.42880000      -0.99170000
H       -0.64340000      -4.39680000      -2.72530000
