14
Properties=species:S:1:pos:R:3 gdb_26568=T pbc="F F F"
N        0.00200000       1.42340000       0.16620000
C       -0.02730000       0.03610000       0.06460000
C       -1.16740000      -0.69560000       0.03650000
O       -2.39490000      -0.13980000       0.03390000
O       -1.20090000      -2.04830000      -0.00410000
C       -0.02680000      -2.72680000      -0.01530000
C        1.16480000      -2.11090000      -0.00240000
C        1.26220000      -0.65420000       0.02190000
O        2.31940000      -0.02640000      -0.00050000
H        0.92620000       1.75930000      -0.08270000
H       -0.74160000       1.90690000      -0.31660000
H       -3.05270000      -0.84520000       0.01300000
H       -0.19540000      -3.79480000      -0.03860000
H        2.07810000      -2.69170000      -0.02290000
