21
Properties=species:S:1:pos:R:3 gdb_90065=T pbc="F F F"
C       -0.22460000       1.59650000      -0.11690000
C        0.01110000       0.09320000      -0.02970000
C        1.02620000      -0.59160000      -1.05930000
C        1.94400000      -0.85400000       0.14830000
C        2.65810000      -1.74780000       1.20830000
C        2.09220000      -0.46000000       1.99480000
C        2.65240000       0.36460000       0.82590000
C        0.78950000      -0.65220000       1.14870000
O       -0.05920000      -1.71540000       1.53440000
H        0.69190000       2.17760000      -0.24220000
H       -0.86610000       1.82210000      -0.97670000
H       -0.73630000       1.96150000       0.77990000
H       -0.96280000      -0.39950000      -0.06990000
H        0.59270000      -1.49120000      -1.50240000
H        1.43470000       0.03950000      -1.85400000
H        2.19960000      -2.71470000       1.42210000
H        3.74880000      -1.83160000       1.17310000
H        2.21800000      -0.25970000       3.06600000
H        3.74060000       0.37870000       0.72460000
H        2.23680000       1.35940000       0.68240000
H        0.34190000      -2.17650000       2.27670000
