16
Properties=species:S:1:pos:R:3 gdb_125677=T pbc="F F F"
C       -0.02010000       1.47680000      -0.00730000
C       -0.00810000      -0.01830000       0.01150000
N       -0.02560000      -0.72550000      -1.11680000
N       -0.00740000      -2.00940000      -0.72000000
C        0.02120000      -2.16400000       0.62770000
C        0.02160000      -0.88030000       1.13820000
N        0.04570000      -0.47230000       2.47780000
C        0.07400000      -1.30530000       3.55670000
O        0.08210000      -2.51720000       3.50280000
H        0.87240000       1.89920000       0.47070000
H       -0.04660000       1.82810000      -1.04060000
H       -0.89620000       1.88550000       0.51140000
H       -0.01600000      -2.73450000      -1.41600000
H        0.03870000      -3.11910000       1.11980000
H        0.04180000       0.51970000       2.65600000
H        0.08890000      -0.73830000       4.50700000
