23
Properties=species:S:1:pos:R:3 gdb_114309=T pbc="F F F"
C        0.37770000       1.71140000      -0.63900000
C        0.43310000       0.21710000      -0.38720000
C        1.65760000      -0.65150000      -0.49470000
C        2.89010000       0.03240000       0.11270000
C        2.16250000       0.07250000       1.49420000
C        2.09240000       1.35130000       2.31050000
O        3.39920000       1.59690000       2.81950000
C        0.89960000      -0.52630000       0.84530000
C        0.01750000      -1.52140000       1.55030000
H        1.31590000       2.21830000      -0.40480000
H        0.16270000       1.90570000      -1.69610000
H       -0.41450000       2.18730000      -0.04970000
H       -0.43720000      -0.29090000      -0.80320000
H        1.69490000      -1.50100000      -1.16810000
H        3.77850000      -0.60120000       0.12590000
H        3.17080000       0.99790000      -0.32060000
H        2.61090000      -0.68730000       2.14450000
H        1.74450000       2.19620000       1.70130000
H        1.36520000       1.21940000       3.12980000
H        3.38360000       2.43040000       3.29870000
H       -0.61320000      -1.03730000       2.30680000
H       -0.65090000      -2.02870000       0.84650000
H        0.61080000      -2.28930000       2.06100000
