17
Properties=species:S:1:pos:R:3 gdb_14387=T pbc="F F F"
C       -0.04030000       1.57780000       0.05440000
C        0.08100000       0.06080000       0.01860000
O       -1.20360000      -0.54310000       0.09520000
C        0.83110000      -0.63730000      -1.10140000
C        2.27820000      -0.72820000      -0.73440000
C        2.49360000      -0.11150000       0.63780000
C        1.09660000      -0.68560000       0.92900000
N        1.30570000      -1.74510000      -0.20560000
H        0.91920000       2.07670000      -0.09980000
H       -0.73030000       1.90750000      -0.72810000
H       -0.44220000       1.91190000       1.01940000
H       -1.61570000      -0.25250000       0.91610000
H        0.46470000      -0.83960000      -2.10170000
H        3.02960000      -1.00400000      -1.46620000
H        3.26640000      -0.66060000       1.18260000
H        2.66500000       0.96400000       0.74530000
H        0.79560000      -1.01480000       1.92320000
