20
Properties=species:S:1:pos:R:3 gdb_31237=T pbc="F F F"
C        0.19270000       1.58030000      -0.26300000
C       -0.02190000       0.07610000      -0.00490000
C        0.61820000      -0.44010000       1.24070000
C        0.11130000      -0.76230000       2.48460000
N       -1.22320000      -0.72130000       2.89660000
C       -1.49340000      -0.91330000       4.31490000
N        1.10310000      -1.21270000       3.32180000
C        2.20920000      -1.16900000       2.60860000
N        1.97880000      -0.70420000       1.35640000
H        1.25730000       1.81750000      -0.36100000
H       -0.30730000       1.89700000      -1.18430000
H       -0.20040000       2.17970000       0.56400000
H       -1.09590000      -0.13390000       0.05850000
H        0.33610000      -0.49090000      -0.87600000
H       -1.71920000       0.07160000       2.51590000
H       -1.12710000      -1.89400000       4.62510000
H       -1.01490000      -0.16460000       4.96410000
H       -2.57520000      -0.87920000       4.47060000
H        3.19130000      -1.45950000       2.95010000
H        2.66240000      -0.58980000       0.62730000
