16
Properties=species:S:1:pos:R:3 gdb_37109=T pbc="F F F"
C        0.01780000       1.47880000      -0.09600000
C        1.32490000       0.75150000       0.05540000
C       -0.00320000      -0.01520000       0.05160000
C        0.43480000      -0.74760000      -1.24220000
C        0.82510000       0.07400000      -2.43690000
C        1.75520000       0.05510000      -1.25780000
O        2.77230000      -0.93110000      -1.22230000
C        2.10270000      -2.13000000      -1.21380000
N        0.82910000      -2.13770000      -1.19480000
H       -0.28910000       2.01130000       0.79920000
H       -0.26770000       1.98480000      -1.01200000
H        2.02140000       0.95700000       0.85780000
H       -0.52370000      -0.52210000       0.85360000
H        1.15890000      -0.49630000      -3.29670000
H        0.28990000       0.97990000      -2.69360000
H        2.74500000      -3.00330000      -1.24610000
