14
Properties=species:S:1:pos:R:3 gdb_84193=T pbc="F F F"
O        0.46440000       1.37140000      -0.20500000
C        0.23590000       0.01280000       0.05630000
C        0.74690000      -0.46890000       1.38620000
C       -0.14200000      -1.26550000       2.00240000
C       -1.44430000      -1.40010000       1.23260000
C       -1.26360000      -0.32690000       0.15810000
O       -2.11580000       0.25840000      -0.45360000
C        0.06780000      -1.92900000       3.24210000
N        0.20780000      -2.48430000       4.24880000
H       -0.32090000       1.69090000      -0.67190000
H        0.66780000      -0.61850000      -0.74580000
H        1.73100000      -0.22130000       1.76240000
H       -1.55540000      -2.38840000       0.76790000
H       -2.34060000      -1.22420000       1.83430000
