20
Properties=species:S:1:pos:R:3 gdb_91901=T pbc="F F F"
C        0.03600000       1.52210000       0.08590000
C        0.04030000       0.02280000      -0.01850000
C        0.01020000      -0.65010000      -1.17040000
C        0.01230000      -2.16080000      -1.21860000
O        0.63510000      -2.66120000      -2.39760000
C        0.82260000      -2.72060000      -0.04620000
N        0.37450000      -2.17360000       1.24490000
C        1.27700000      -1.23050000       1.90710000
C        0.02230000      -0.75110000       1.25600000
H        0.92890000       1.88270000       0.61130000
H        0.00350000       1.99250000      -0.90050000
H       -0.82840000       1.87680000       0.66170000
H       -0.00610000      -0.12450000      -2.12350000
H       -1.02290000      -2.53670000      -1.15250000
H        0.08070000      -2.42950000      -3.14900000
H        0.72510000      -3.81040000      -0.01360000
H        1.87580000      -2.48850000      -0.25160000
H        1.34180000      -1.31430000       2.98930000
H        2.21530000      -0.99620000       1.40690000
H       -0.81910000      -0.51800000       1.91110000
