18
Properties=species:S:1:pos:R:3 gdb_67941=T pbc="F F F"
C       -0.00830000       1.50990000      -0.03560000
C       -0.02050000      -0.00930000       0.03840000
C       -1.43050000      -0.65020000      -0.02800000
C       -1.40420000      -1.71070000       1.04630000
C       -0.26840000      -1.71710000       1.74670000
C        0.71510000      -0.70260000       1.24520000
C        1.70040000      -1.26510000       0.17260000
O        2.68040000      -1.95880000       0.17350000
N        0.98040000      -0.66100000      -0.82750000
H        1.00950000       1.89830000       0.06300000
H       -0.41400000       1.85980000      -0.99200000
H       -0.62390000       1.93870000       0.76150000
H       -2.22030000       0.09030000       0.15440000
H       -1.62550000      -1.06810000      -1.02420000
H       -2.23670000      -2.38610000       1.21140000
H       -0.03600000      -2.39490000       2.55940000
H        1.17870000      -0.06770000       2.00390000
H        1.06600000      -0.71470000      -1.83300000
