18
Properties=species:S:1:pos:R:3 gdb_15659=T pbc="F F F"
O       -0.06540000       1.44210000       0.00170000
C        0.05770000       0.02570000       0.06050000
C       -1.34950000      -0.55240000      -0.04930000
C       -2.04390000      -0.31310000      -1.37360000
C       -2.76970000      -1.36850000      -1.74540000
C       -2.68230000      -2.48590000      -0.72850000
C       -1.42750000      -2.09920000       0.09280000
O       -0.26280000      -2.74530000      -0.41250000
H        0.81920000       1.81890000       0.00470000
H        0.68900000      -0.35240000      -0.75540000
H        0.51910000      -0.29890000       1.00590000
H       -1.94120000      -0.08780000       0.75420000
H       -1.96230000       0.62810000      -1.90360000
H       -3.38480000      -1.42760000      -2.63660000
H       -3.58230000      -2.51420000      -0.09820000
H       -2.56640000      -3.48590000      -1.16050000
H       -1.49030000      -2.41470000       1.13720000
H       -0.22480000      -2.56270000      -1.35880000
