19
Properties=species:S:1:pos:R:3 gdb_47200=T pbc="F F F"
O        0.02610000       0.04940000      -0.43070000
C       -0.00850000       1.21420000      -0.09410000
C       -1.31510000       1.93090000       0.20990000
C       -1.22030000       2.90980000       1.39230000
C        0.01060000       3.77340000       1.29520000
C        1.10420000       3.38180000       0.64090000
C        1.23070000       2.05980000      -0.01510000
C        2.54760000       1.29280000       0.11560000
C        2.19830000       1.89530000      -1.19600000
H       -1.56130000       2.50400000      -0.69580000
H       -2.09690000       1.18030000       0.34580000
H       -2.12180000       3.53160000       1.42340000
H       -1.21210000       2.35380000       2.34130000
H       -0.00580000       4.73880000       1.79250000
H        1.97860000       4.02770000       0.59890000
H        3.32020000       1.75790000       0.71740000
H        2.44540000       0.21890000       0.21880000
H        1.86920000       1.23020000      -1.98610000
H        2.71820000       2.78940000      -1.52260000
