18
Properties=species:S:1:pos:R:3 gdb_66071=T pbc="F F F"
C       -0.19370000       1.53890000       0.18500000
C       -0.05590000       0.01230000       0.07520000
C        1.09140000      -0.41680000      -0.90790000
C        2.03400000      -0.65010000       0.30060000
C        0.77500000      -0.67880000       1.21800000
C        0.87410000      -0.08290000       2.59590000
O        0.12550000       0.73380000       3.06780000
C       -1.35260000      -0.60280000      -0.18650000
N       -2.36970000      -1.10940000      -0.40160000
H        0.78340000       1.99640000       0.36480000
H       -0.59010000       1.93770000      -0.75310000
H       -0.85400000       1.81880000       1.00520000
H        0.85340000      -1.34560000      -1.42920000
H        1.38510000       0.33930000      -1.63840000
H        2.65260000      -1.54800000       0.28400000
H        2.67440000       0.21200000       0.50450000
H        0.44350000      -1.71690000       1.34550000
H        1.73650000      -0.47790000       3.18360000
