14
Properties=species:S:1:pos:R:3 gdb_2628=T pbc="F F F"
O        0.00860000      -0.02870000      -0.54490000
C        0.27740000       1.06170000      -0.11450000
C        1.33260000       1.98120000      -0.70630000
N        0.98010000       3.37610000      -0.47560000
C        2.05500000       4.32900000      -0.76360000
C        2.51500000       4.35330000      -2.15820000
C        2.84990000       4.34510000      -3.31320000
H       -0.22890000       1.48660000       0.78160000
H        2.26430000       1.77250000      -0.15800000
H        1.51110000       1.70250000      -1.75510000
H        0.17160000       3.61850000      -1.04050000
H        1.70740000       5.32850000      -0.47740000
H        2.89970000       4.09630000      -0.10280000
H        3.15720000       4.34550000      -4.32990000
