23
Properties=species:S:1:pos:R:3 gdb_123011=T pbc="F F F"
C        0.28300000       1.47110000      -0.35000000
C        0.05730000       0.03200000       0.03830000
O        1.21290000      -0.78740000       0.25280000
C        0.33830000      -0.54490000       1.36450000
C        0.91000000       0.20330000       2.54430000
C        1.86470000      -0.67180000       3.36970000
C        2.45450000       0.06200000       4.57670000
C        3.40400000      -0.80540000       5.39230000
O        3.88410000      -0.02850000       6.47990000
H        1.06050000       1.94110000       0.25480000
H        0.58890000       1.53310000      -1.39970000
H       -0.64340000       2.04520000      -0.23830000
H       -0.71930000      -0.46660000      -0.54720000
H       -0.25010000      -1.42350000       1.64460000
H        1.44050000       1.09730000       2.20310000
H        0.08040000       0.54580000       3.17820000
H        1.33050000      -1.57020000       3.70880000
H        2.67060000      -1.02320000       2.71340000
H        2.99830000       0.95580000       4.24700000
H        1.65150000       0.41260000       5.23730000
H        2.87310000      -1.70380000       5.74830000
H        4.23260000      -1.15120000       4.75260000
H        4.49200000      -0.57040000       6.99100000
