19
Properties=species:S:1:pos:R:3 gdb_30151=T pbc="F F F"
C       -0.49540000       1.37370000       0.13270000
C       -0.04870000      -0.06930000       0.07040000
C        1.36480000      -0.41200000      -0.33180000
C        0.91300000      -0.65220000       1.08570000
N        1.44290000       0.15980000       2.14160000
C        0.75680000       0.59320000       3.25990000
C        1.67890000       1.24830000       4.03080000
N        2.91580000       1.22910000       3.42740000
C        2.73870000       0.56640000       2.30800000
H        0.29910000       2.02140000       0.51240000
H       -0.77500000       1.73170000      -0.86360000
H       -1.36470000       1.49470000       0.78770000
H       -0.81430000      -0.76620000      -0.25960000
H        1.55310000      -1.27700000      -0.95700000
H        2.03790000       0.42100000      -0.50290000
H        0.74520000      -1.68450000       1.37990000
H       -0.29500000       0.39540000       3.38390000
H        1.52350000       1.73690000       4.98080000
H        3.49890000       0.34130000       1.57550000
