16
Properties=species:S:1:pos:R:3 gdb_116737=T pbc="F F F"
C       -0.43050000       1.03370000       0.04060000
O        0.22180000      -0.21850000      -0.14600000
C        0.59250000      -0.85380000       0.97630000
N        1.14330000      -1.98690000       0.90770000
C        1.47610000      -2.63300000       2.15010000
C        0.25090000      -3.11450000       2.94160000
O       -0.85760000      -2.65470000       2.79150000
C        0.53520000      -4.14120000       3.92810000
C        0.80420000      -4.99040000       4.73800000
H        0.20280000       1.73770000       0.59380000
H       -0.61940000       1.43160000      -0.95690000
H       -1.38390000       0.91050000       0.56680000
H        0.38950000      -0.29710000       1.90220000
H        2.12380000      -3.49480000       1.95900000
H        2.03540000      -1.98740000       2.85140000
H        1.02210000      -5.74120000       5.45840000
