20
Properties=species:S:1:pos:R:3 gdb_79823=T pbc="F F F"
C       -0.39070000       1.54740000      -0.02680000
C        0.02230000       0.08600000       0.04070000
N        0.96510000      -0.43660000      -1.01840000
C        2.38410000      -0.22830000      -0.59110000
C        2.76630000       0.83850000       0.42920000
C        1.94510000       0.46480000       1.69100000
C        0.90010000      -0.53260000       1.17120000
O        0.26770000      -1.31400000       2.14780000
C        1.60250000      -1.31120000       0.02990000
H        0.43800000       2.24160000       0.12940000
H       -0.81960000       1.75870000      -1.01210000
H       -1.16000000       1.76430000       0.72300000
H       -0.87140000      -0.54170000      -0.04710000
H        3.06630000      -0.43800000      -1.40870000
H        3.84240000       0.78870000       0.62360000
H        2.56060000       1.84980000       0.06670000
H        2.57110000      -0.03900000       2.43510000
H        1.48360000       1.33420000       2.17340000
H       -0.06600000      -0.72900000       2.83610000
H        1.71590000      -2.38380000      -0.07060000
