21
Properties=species:S:1:pos:R:3 gdb_52397=T pbc="F F F"
O       -0.31110000       0.33020000       0.60620000
C       -0.01430000       1.22440000      -0.14020000
C        1.36390000       1.86070000      -0.18880000
O        1.35180000       2.86100000      -1.17090000
C        2.58970000       3.53500000      -1.31320000
C        2.44760000       4.59140000      -2.38620000
C        1.56620000       5.83950000      -2.10120000
C        2.63670000       6.71030000      -2.81330000
C        3.64950000       5.54590000      -2.63440000
H       -0.73220000       1.66610000      -0.86610000
H        1.60360000       2.26110000       0.81150000
H        2.10890000       1.07490000      -0.40360000
H        2.87870000       4.00080000      -0.35470000
H        3.38540000       2.81670000      -1.57750000
H        2.13690000       4.10980000      -3.31930000
H        0.55030000       5.84490000      -2.50110000
H        1.51670000       6.05270000      -1.02810000
H        2.39190000       6.87420000      -3.86650000
H        2.88970000       7.67350000      -2.36450000
H        4.25250000       5.67220000      -1.72870000
H        4.31960000       5.31390000      -3.46550000
