18
Properties=species:S:1:pos:R:3 gdb_84770=T pbc="F F F"
C       -0.31870000       1.50370000      -0.01890000
C        0.11030000       0.04350000      -0.06980000
N        1.10760000      -0.21790000      -1.12130000
C        1.91710000      -1.07740000      -0.64310000
N        1.68950000      -1.51840000       0.65370000
C        0.75890000      -0.54610000       1.25640000
C        1.50910000       0.48730000       2.11610000
C       -0.25170000      -1.22760000       2.07660000
N       -1.05720000      -1.73040000       2.73560000
H        0.52950000       2.17000000       0.15780000
H       -0.76010000       1.77600000      -0.98060000
H       -1.06810000       1.66950000       0.76130000
H       -0.77120000      -0.57060000      -0.29690000
H        2.74340000      -1.50630000      -1.20290000
H        2.47720000      -1.81940000       1.21150000
H        2.24110000       1.01730000       1.50110000
H        0.82100000       1.21540000       2.55130000
H        2.03260000      -0.01240000       2.93670000
