15
Properties=species:S:1:pos:R:3 gdb_31114=T pbc="F F F"
O        0.26520000       0.93870000       0.85230000
C       -0.03240000       0.04070000      -0.23600000
C       -1.43570000      -0.45850000      -0.13130000
C       -2.15300000      -0.56400000       1.02390000
O       -1.88050000      -0.26880000       2.31240000
N       -3.38770000      -1.08240000       0.67420000
C       -3.34140000      -1.26140000      -0.68020000
O       -4.42110000      -1.75980000      -1.31130000
N       -2.21010000      -0.90560000      -1.20870000
H       -0.25090000       1.73870000       0.69980000
H        0.13640000       0.52100000      -1.20870000
H        0.70960000      -0.76130000      -0.13960000
H       -1.00730000       0.15850000       2.28760000
H       -4.16210000      -1.26490000       1.28940000
H       -4.18390000      -1.81080000      -2.24570000
