17
Properties=species:S:1:pos:R:3 gdb_22602=T pbc="F F F"
C        0.00720000       1.50710000       0.07270000
C        0.13970000       0.02090000      -0.02340000
N       -0.80670000      -0.91660000       0.61170000
C        0.66110000      -1.00150000       0.94790000
C        1.26670000      -1.77800000      -0.16420000
N        2.07580000      -2.75120000      -0.13640000
O        2.48250000      -3.11420000      -1.43040000
C        0.69450000      -0.79970000      -1.22260000
O       -0.23170000      -1.25160000      -2.16150000
H        0.94150000       2.00310000      -0.20960000
H       -0.78010000       1.87040000      -0.59740000
H       -0.24650000       1.81880000       1.09190000
H       -1.25670000      -0.42500000       1.38450000
H        1.00270000      -0.89020000       1.96840000
H        3.08720000      -3.84320000      -1.25540000
H        1.49840000      -0.28970000      -1.76180000
H       -0.96290000      -1.62120000      -1.64730000
