21
Properties=species:S:1:pos:R:3 gdb_56909=T pbc="F F F"
C       -0.11940000       1.52590000      -0.19060000
C       -0.03040000       0.01840000      -0.02920000
C       -1.28920000      -0.70840000      -0.47170000
C        1.29240000      -0.67460000      -0.26850000
C        0.71910000      -0.60420000       1.13050000
C        1.38730000       0.14450000       2.28350000
N        1.98710000      -0.84090000       3.19610000
C        2.37910000       1.15010000       1.84370000
N        3.20230000       1.90780000       1.54900000
H        0.80740000       2.03840000       0.07310000
H       -0.34890000       1.77810000      -1.23230000
H       -0.92460000       1.93970000       0.42850000
H       -1.49970000      -0.51100000      -1.52920000
H       -1.19470000      -1.79140000      -0.34630000
H       -2.16030000      -0.37850000       0.10670000
H        1.29980000      -1.63520000      -0.77300000
H        2.15200000      -0.04850000      -0.48610000
H        0.28560000      -1.52150000       1.51840000
H        0.61890000       0.68200000       2.85420000
H        2.71380000      -1.35320000       2.70240000
H        2.44430000      -0.36520000       3.96910000
