23
Properties=species:S:1:pos:R:3 gdb_122564=T pbc="F F F"
O       -0.07150000       1.46920000      -0.12990000
C        0.03840000       0.06690000       0.06830000
C       -1.35310000      -0.53910000      -0.05470000
C       -1.36330000      -2.05920000       0.13990000
C       -2.75990000      -2.66490000       0.02430000
C       -3.48540000      -2.69400000      -1.37000000
C       -3.67710000      -4.20830000      -1.21900000
C       -2.34240000      -4.88300000      -1.09200000
C       -2.92250000      -4.19120000       0.11240000
H        0.80690000       1.85290000      -0.05450000
H        0.70960000      -0.38920000      -0.67840000
H        0.45660000      -0.16320000       1.06230000
H       -2.00650000      -0.05920000       0.68460000
H       -1.75750000      -0.28040000      -1.04090000
H       -0.69430000      -2.52700000      -0.59430000
H       -0.95070000      -2.30670000       1.12830000
H       -3.41710000      -2.18280000       0.75640000
H       -4.41800000      -2.12590000      -1.37050000
H       -2.88950000      -2.38080000      -2.23500000
H       -4.57290000      -4.75660000      -1.48420000
H       -2.36940000      -5.96740000      -1.05030000
H       -1.47230000      -4.48500000      -1.60910000
H       -3.13690000      -4.73900000       1.02300000
