18
Properties=species:S:1:pos:R:3 gdb_34653=T pbc="F F F"
N        0.06070000      -1.22210000       0.16240000
C        0.00860000      -0.06700000       0.09800000
C       -0.02970000       1.36910000       0.01800000
C       -1.25120000       1.94470000       0.01540000
C       -1.56400000       3.40870000      -0.05650000
C       -0.59820000       4.33090000       0.70520000
C        0.77350000       4.52080000       0.05260000
C        1.63110000       3.29890000      -0.10160000
C        1.29410000       2.00250000      -0.09310000
H       -2.10560000       1.27620000       0.07200000
H       -1.61030000       3.71440000      -1.11290000
H       -2.57820000       3.55580000       0.33070000
H       -1.06800000       5.31580000       0.80110000
H       -0.46800000       3.94720000       1.72330000
H        0.65470000       4.99340000      -0.93430000
H        1.33900000       5.25360000       0.64360000
H        2.68970000       3.51170000      -0.23740000
H        2.10370000       1.28670000      -0.20340000
