13
Properties=species:S:1:pos:R:3 gdb_24514=T pbc="F F F"
O       -0.06750000       1.29680000       0.00970000
C        1.21060000       1.79960000       0.00030000
C        2.15480000       0.83040000      -0.01410000
C        1.42570000      -0.41080000      -0.01390000
C        0.06460000      -0.05280000       0.00100000
N       -0.96260000      -0.87260000       0.00630000
C       -0.59290000      -2.15930000      -0.00430000
N        0.65230000      -2.65280000      -0.01890000
C        1.66470000      -1.78320000      -0.02370000
H        1.27210000       2.87580000       0.00560000
H        3.22300000       0.97850000      -0.02340000
H       -1.39880000      -2.88760000      -0.00070000
H        2.67070000      -2.19580000      -0.03560000
