19
Properties=species:S:1:pos:R:3 gdb_115422=T pbc="F F F"
C        0.52370000       0.74590000       0.95370000
O       -0.03440000      -0.42380000       0.38340000
C       -1.22620000      -0.19260000      -0.32360000
C       -1.71490000      -1.53300000      -0.85930000
C       -2.45050000      -2.09630000       0.37970000
C       -3.05880000      -0.80500000       0.98760000
O       -2.26200000       0.28400000       0.51400000
C       -3.43040000      -3.13180000       0.10090000
C       -4.25040000      -3.97950000      -0.13190000
H        1.44420000       0.44740000       1.45990000
H        0.76700000       1.48980000       0.17960000
H       -0.15960000       1.20550000       1.67690000
H       -1.06340000       0.58030000      -1.08860000
H       -2.41800000      -1.37570000      -1.68130000
H       -0.89630000      -2.16710000      -1.19930000
H       -1.69420000      -2.48600000       1.06910000
H       -4.09090000      -0.66120000       0.64810000
H       -3.05100000      -0.82490000       2.08190000
H       -4.97090000      -4.73250000      -0.33500000
