19
Properties=species:S:1:pos:R:3 gdb_73095=T pbc="F F F"
C       -0.13040000       1.52650000       0.14070000
C        0.00820000       0.02030000       0.04090000
C       -1.28410000      -0.74810000      -0.22300000
C       -1.08590000      -2.12100000       0.42810000
O       -1.66990000      -3.13210000       0.14350000
C       -0.02210000      -1.98200000       1.52950000
C        0.79150000      -0.73790000       1.17180000
C        1.86620000      -0.93590000       0.08720000
O        1.02610000      -0.35610000      -0.93140000
H        0.83730000       1.99030000       0.35360000
H       -0.50330000       1.93870000      -0.80270000
H       -0.83090000       1.80320000       0.93600000
H       -2.14410000      -0.26580000       0.26090000
H       -1.50640000      -0.84220000      -1.28800000
H       -0.55490000      -1.84920000       2.48020000
H        0.56360000      -2.90080000       1.61720000
H        1.09530000      -0.14700000       2.03650000
H        2.78730000      -0.35790000       0.23500000
H        2.13380000      -1.97480000      -0.14260000
