17
Properties=species:S:1:pos:R:3 gdb_41363=T pbc="F F F"
C       -0.00980000       1.48050000      -0.05520000
O        1.45120000       1.46690000       0.12470000
C        1.29990000       0.18630000       0.81400000
C        1.79730000      -1.23470000       0.55420000
C        0.49930000      -1.92440000       1.14990000
O       -0.63640000      -1.07870000       0.72900000
C        0.04900000      -0.06000000       0.02040000
C        0.60360000      -0.67370000      -1.28440000
O        1.76490000      -1.41720000      -0.84710000
H       -0.50890000       1.95790000       0.79550000
H       -0.30130000       1.95210000      -0.99650000
H        1.12510000       0.36830000       1.88020000
H        2.73580000      -1.61360000       0.95790000
H        0.38960000      -2.91880000       0.71020000
H        0.50200000      -1.99960000       2.24270000
H       -0.13750000      -1.35360000      -1.71790000
H        0.91470000       0.06450000      -2.02810000
