18
Properties=species:S:1:pos:R:3 gdb_47844=T pbc="F F F"
O        0.07380000      -0.08200000      -0.01920000
C        0.03670000       1.12470000       0.01580000
C       -1.31260000       1.85330000       0.05070000
C       -1.70430000       2.61400000      -1.24130000
C       -1.22600000       4.06660000      -1.27570000
O        0.13900000       4.19360000      -0.85810000
C        1.03750000       3.51830000      -1.63480000
N        1.66570000       2.48980000      -1.26710000
C        1.34620000       1.93740000       0.05550000
H       -2.04960000       1.07100000       0.24460000
H       -1.32180000       2.54930000       0.89880000
H       -1.33870000       2.06750000      -2.11730000
H       -2.79660000       2.63050000      -1.32680000
H       -1.36090000       4.49790000      -2.27810000
H       -1.78800000       4.67760000      -0.56430000
H        1.21330000       3.95060000      -2.62310000
H        1.26030000       2.72710000       0.81090000
H        2.13940000       1.24290000       0.33470000
