14
Properties=species:S:1:pos:R:3 gdb_27912=T pbc="F F F"
N        0.01740000       1.38480000      -0.01920000
C       -0.01940000       0.02090000      -0.02750000
C       -1.22940000      -0.68650000      -0.03940000
C       -1.11220000      -2.06610000      -0.09050000
O       -2.22130000      -2.82430000      -0.10480000
N        0.05920000      -2.70690000      -0.12670000
C        1.13530000      -1.91440000      -0.10860000
O        2.32870000      -2.52840000      -0.14110000
N        1.17620000      -0.59440000      -0.05810000
H        0.91200000       1.79840000       0.18860000
H       -0.80000000       1.89430000       0.26920000
H       -2.19620000      -0.20320000      -0.01780000
H       -1.91890000      -3.74230000      -0.14260000
H        2.14160000      -3.47570000      -0.17350000
