23
Properties=species:S:1:pos:R:3 gdb_119153=T pbc="F F F"
C        0.93750000       1.33350000      -0.04160000
O        1.03060000      -0.06920000      -0.12630000
C        0.16450000      -0.61520000      -1.10130000
C        0.32840000      -2.12430000      -1.12780000
C       -0.37740000      -2.88680000      -0.08870000
O       -0.90300000      -2.80960000      -1.41690000
C        1.54790000      -2.73790000      -1.80890000
C        1.56070000      -2.43470000      -3.31510000
C        2.86750000      -2.33580000      -1.13460000
H        1.20390000       1.82050000      -0.99300000
H       -0.07830000       1.65770000       0.23500000
H        1.63640000       1.66150000       0.73150000
H       -0.88690000      -0.38900000      -0.86500000
H        0.37830000      -0.17900000      -2.09050000
H        0.00110000      -3.86440000       0.20630000
H       -0.95050000      -2.36150000       0.67390000
H        1.42310000      -3.82260000      -1.69830000
H        2.35030000      -3.00650000      -3.81270000
H        0.60510000      -2.70320000      -3.77510000
H        1.75290000      -1.37490000      -3.51530000
H        2.86300000      -2.58510000      -0.06920000
H        3.70550000      -2.86090000      -1.60480000
H        3.04690000      -1.26090000      -1.21620000
