12
Properties=species:S:1:pos:R:3 gdb_4702=T pbc="F F F"
O        0.07450000       1.30540000       0.19740000
C        0.06730000      -0.02370000       0.03110000
N        0.07590000      -0.67060000      -1.10890000
C        0.06260000      -1.99970000      -0.75360000
C        0.04600000      -2.15220000       0.61410000
N        0.04930000      -0.83980000       1.10780000
C        0.02870000      -3.28130000       1.44790000
C        0.01380000      -4.24390000       2.17400000
H        0.08760000       1.68970000      -0.68870000
H        0.06570000      -2.78340000      -1.49460000
H        0.03990000      -0.56360000       2.07500000
H        0.00070000      -5.09840000       2.80370000
