15
Properties=species:S:1:pos:R:3 gdb_1633=T pbc="F F F"
C       -0.08620000       1.49760000       0.00960000
N       -0.00640000       0.03870000       0.00540000
C        0.09020000      -0.63700000       1.22170000
N        0.11080000      -0.01920000       2.33280000
C       -0.02260000      -0.71650000      -1.17110000
C       -0.12900000       0.06740000      -2.46420000
O        0.04480000      -1.92900000      -1.15680000
H        0.75580000       1.94280000      -0.52810000
H       -1.01980000       1.84540000      -0.44190000
H       -0.05320000       1.81740000       1.05010000
H        0.14190000      -1.71460000       1.07040000
H        0.18490000      -0.68500000       3.09910000
H        0.71090000       0.75880000      -2.58400000
H       -0.12970000      -0.64700000      -3.28630000
H       -1.04750000       0.66160000      -2.49810000
