16
Properties=species:S:1:pos:R:3 gdb_52207=T pbc="F F F"
O        0.10830000       1.36280000      -1.16840000
C        0.12050000       1.62370000       0.01720000
N        1.13920000       1.31280000       0.86070000
C        2.35080000       0.66310000       0.38530000
C        3.29080000       1.63830000      -0.29200000
N        4.08160000       2.49450000       0.59180000
C        4.77850000       1.48290000      -0.23070000
C        5.40140000       0.39200000       0.48170000
N        5.89760000      -0.49600000       1.03110000
H       -0.71260000       2.13620000       0.53660000
H        1.11890000       1.66910000       1.80250000
H        2.84920000       0.18990000       1.23380000
H        2.06160000      -0.11320000      -0.32820000
H        2.90200000       2.06880000      -1.21160000
H        4.22510000       3.41540000       0.18580000
H        5.34380000       1.81620000      -1.09660000
