17
Properties=species:S:1:pos:R:3 gdb_46877=T pbc="F F F"
N       -0.00270000       1.09920000       0.96340000
C       -0.01320000       0.16080000       0.10360000
O        1.13690000      -0.14410000      -0.58940000
C        1.25810000      -1.42140000      -1.21270000
C        0.48330000      -1.47310000      -2.50470000
C       -0.32720000      -2.68670000      -2.84930000
N       -0.96330000      -1.44660000      -2.41860000
C       -1.62280000      -1.31900000      -1.20130000
C       -1.25150000      -0.59110000      -0.13320000
H        0.93480000       1.50120000       1.02230000
H        2.32700000      -1.55210000      -1.40150000
H        0.93070000      -2.21260000      -0.52960000
H        0.89040000      -0.87150000      -3.31460000
H       -0.48200000      -2.96010000      -3.88860000
H       -0.30600000      -3.51770000      -2.14740000
H       -2.59490000      -1.80570000      -1.19500000
H       -1.97230000      -0.46940000       0.66610000
