21
Properties=species:S:1:pos:R:3 gdb_92202=T pbc="F F F"
C       -0.10290000       1.57200000       0.02830000
C        0.04540000       0.04990000       0.01000000
C        0.77290000      -0.51330000      -1.24530000
C        1.70020000      -1.65800000      -0.76750000
C        3.17750000      -1.24180000      -0.46150000
C        2.82460000      -1.13750000       1.03090000
O        2.14930000       0.10330000       1.34900000
C        0.83270000      -0.50450000       1.19690000
C        1.46600000      -1.83700000       0.77550000
H        0.88390000       2.04310000       0.06080000
H       -0.62770000       1.93000000      -0.86320000
H       -0.66680000       1.90820000       0.90520000
H       -0.95290000      -0.40720000       0.06830000
H        0.04640000      -0.86760000      -1.98280000
H        1.35790000       0.27090000      -1.73770000
H        1.60890000      -2.55600000      -1.38000000
H        3.87760000      -2.06290000      -0.64760000
H        3.55640000      -0.33150000      -0.93500000
H        3.56480000      -1.40590000       1.78880000
H        0.28140000      -0.46470000       2.14410000
H        1.14210000      -2.78940000       1.18890000
