16
Properties=species:S:1:pos:R:3 gdb_125397=T pbc="F F F"
C       -0.01000000       1.50270000       0.03440000
C       -0.00540000       0.00500000      -0.00710000
C       -0.04710000      -0.70700000      -1.15270000
O       -0.04500000      -2.04500000      -1.24140000
N        0.00300000      -2.83210000      -0.09660000
C        0.04480000      -2.22410000       1.04230000
C        0.09580000      -3.08900000       2.26430000
C        0.04600000      -0.74870000       1.23160000
O        0.08750000      -0.25270000       2.34990000
H        0.88550000       1.87350000       0.54350000
H       -0.05070000       1.93490000      -0.96870000
H       -0.86640000       1.86620000       0.61140000
H       -0.08760000      -0.26770000      -2.14480000
H        0.08940000      -4.14390000       1.98910000
H        0.99420000      -2.85740000       2.84450000
H       -0.75680000      -2.86450000       2.91250000
