23
Properties=species:S:1:pos:R:3 gdb_104186=T pbc="F F F"
C        0.38660000       1.44130000      -0.24960000
C       -0.04670000      -0.00480000       0.01780000
C       -1.56760000      -0.11990000      -0.08530000
C        0.79590000      -1.01700000      -0.82290000
C        1.74660000      -1.21230000       0.38710000
C        0.65740000      -0.57520000       1.30140000
O        1.07310000       0.41690000       2.21320000
C       -0.14810000      -1.62630000       2.06140000
O        0.70390000      -2.09160000       3.10970000
H        1.47260000       1.55760000      -0.21320000
H        0.04220000       1.75380000      -1.24190000
H       -0.03790000       2.12080000       0.49460000
H       -1.90280000       0.19600000      -1.07980000
H       -1.92100000      -1.14500000       0.06500000
H       -2.06830000       0.52340000       0.64740000
H        0.23490000      -1.92410000      -1.06670000
H        1.23710000      -0.62840000      -1.74430000
H        2.06450000      -2.22830000       0.63100000
H        2.62660000      -0.56810000       0.33650000
H        1.34060000      -0.05750000       3.01150000
H       -1.05600000      -1.16530000       2.47410000
H       -0.44580000      -2.45370000       1.40220000
H        0.17340000      -2.58780000       3.73870000
