18
Properties=species:S:1:pos:R:3 gdb_45320=T pbc="F F F"
O        0.07800000       0.01420000       0.27740000
C       -0.01800000       1.18990000       0.04330000
C       -1.16330000       2.22500000      -0.10210000
C       -0.02900000       3.28510000      -0.20550000
C        0.19720000       4.23710000       0.97220000
C        1.67590000       4.41840000       1.23670000
C        2.61510000       3.54680000       0.86840000
C        2.33340000       2.26470000       0.12870000
N        0.92630000       2.16790000      -0.17470000
H       -1.78100000       2.09900000      -0.99300000
H       -1.80270000       2.30750000       0.77930000
H       -0.00110000       3.83520000      -1.15280000
H       -0.27610000       5.20610000       0.77740000
H       -0.28650000       3.83940000       1.87600000
H        1.96840000       5.31510000       1.77640000
H        3.66020000       3.74290000       1.09040000
H        2.94610000       2.21950000      -0.78510000
H        2.61470000       1.39130000       0.73120000
