23
Properties=species:S:1:pos:R:3 gdb_39429=T pbc="F F F"
C       -0.03410000       1.50770000      -0.01430000
C        1.28130000       0.75250000       0.01440000
C        2.11600000       0.66190000       1.28950000
C        2.02130000      -0.73510000       1.92790000
C        0.56970000      -1.06730000       2.30540000
C       -0.38980000      -0.97520000       1.11220000
C       -0.37720000      -2.09620000       0.02570000
C       -0.45310000      -1.00030000      -1.07740000
C       -0.03140000       0.01290000      -0.01140000
H       -0.33990000       2.02740000       0.89040000
H       -0.31170000       2.01660000      -0.93260000
H        1.84660000       0.75450000      -0.91440000
H        3.15990000       0.90640000       1.06760000
H        1.77730000       1.40770000       2.02100000
H        2.41120000      -1.48280000       1.22460000
H        2.65530000      -0.78670000       2.82020000
H        0.50530000      -2.06860000       2.74940000
H        0.24770000      -0.36530000       3.08700000
H       -1.41560000      -0.81850000       1.46640000
H        0.57670000      -2.63110000       0.00260000
H       -1.18680000      -2.82880000       0.06340000
H        0.19730000      -1.11510000      -1.94960000
H       -1.47890000      -0.83890000      -1.42610000
