23
Properties=species:S:1:pos:R:3 gdb_105366=T pbc="F F F"
C        0.75930000      -0.24240000       1.51630000
C        0.14330000      -0.12220000       0.11610000
C       -1.30410000      -0.59000000       0.02350000
C       -1.76480000      -1.19710000      -1.28030000
C       -1.54080000      -2.08010000      -0.07620000
C       -2.33620000       0.23070000       0.79180000
C       -2.58740000       1.59910000       0.19920000
O       -3.44950000       1.65630000      -0.94310000
C       -3.90010000       2.25170000       0.27500000
H        1.81140000       0.05930000       1.50650000
H        0.24550000       0.39130000       2.24660000
H        0.70820000      -1.27400000       1.87990000
H        0.22140000       0.91680000      -0.23060000
H        0.74240000      -0.71290000      -0.58740000
H       -2.78260000      -0.99880000      -1.59520000
H       -1.05230000      -1.25730000      -2.09650000
H       -0.67350000      -2.73260000      -0.07800000
H       -2.40750000      -2.50250000       0.42170000
H       -3.29030000      -0.30810000       0.81190000
H       -2.02320000       0.35230000       1.83730000
H       -1.71550000       2.24990000       0.11470000
H       -4.72530000       1.73880000       0.76860000
H       -3.97060000       3.33870000       0.26790000
