15
Properties=species:S:1:pos:R:3 gdb_24383=T pbc="F F F"
C        0.00110000       1.49050000      -0.07330000
N        1.34350000       2.04750000       0.16530000
C        2.35950000       1.30160000       0.29710000
N        2.42500000      -0.10010000       0.19640000
C        1.16600000      -0.69390000       0.13710000
C       -0.00180000      -0.00590000      -0.00400000
N       -1.05850000      -0.88580000      -0.09740000
C       -0.52680000      -2.08100000      -0.01490000
N        0.84420000      -2.02710000       0.12360000
H       -0.68380000       1.93600000       0.66090000
H       -0.34750000       1.85420000      -1.05140000
H        3.33250000       1.75560000       0.48600000
H        3.15100000      -0.54380000       0.74200000
H       -1.05640000      -3.02080000      -0.03860000
H        1.47410000      -2.80890000       0.18530000
