21
Properties=species:S:1:pos:R:3 gdb_95072=T pbc="F F F"
O       -0.19810000       1.48130000       0.26780000
C        0.01430000       0.09420000       0.01840000
C        0.88230000      -0.49750000       1.14320000
O        1.38700000      -1.79850000       0.90500000
C        0.46210000      -2.83980000       0.63790000
C       -0.22260000      -2.75530000      -0.75840000
C       -1.43720000      -2.05900000      -0.07070000
C       -0.94900000      -2.68830000       1.26820000
C       -1.38440000      -0.52640000      -0.09460000
H        0.64930000       1.93200000       0.19330000
H        0.55500000      -0.04450000      -0.93040000
H        1.77520000       0.12840000       1.25820000
H        0.32710000      -0.43900000       2.09100000
H        1.00840000      -3.76010000       0.85800000
H        0.31730000      -2.22080000      -1.54340000
H       -0.48320000      -3.75210000      -1.12600000
H       -2.42570000      -2.38500000      -0.40470000
H       -1.39250000      -3.67440000       1.43030000
H       -1.05270000      -2.11000000       2.18930000
H       -1.98670000      -0.12860000       0.73240000
H       -1.84040000      -0.15200000      -1.01800000
