15
Properties=species:S:1:pos:R:3 gdb_3381=T pbc="F F F"
O       -0.02760000       0.01080000      -0.28310000
C        0.00050000       1.14990000       0.12050000
C        1.21830000       1.99250000       0.10970000
C        1.23850000       3.48580000      -0.18520000
C        0.00380000       4.21110000       0.37010000
C        0.37380000       3.69350000       1.80030000
C        1.59710000       2.98460000       1.20050000
H       -0.91760000       1.62350000       0.52850000
H        2.07340000       1.46420000      -0.30250000
H        1.88590000       3.85620000      -0.97080000
H        0.10100000       5.29610000       0.29600000
H       -0.96870000       3.92670000      -0.04030000
H        0.66160000       4.51170000       2.46350000
H       -0.35700000       3.07120000       2.32330000
H        2.56950000       2.90070000       1.67060000
