20
Properties=species:S:1:pos:R:3 gdb_80806=T pbc="F F F"
C       -0.11150000       1.61470000       0.17160000
C        0.04620000       0.10650000       0.15070000
N        1.17730000      -0.51920000      -0.70190000
C        2.10360000      -0.13950000       0.46370000
C        0.86470000      -0.69100000       1.21700000
C        0.63320000      -0.81790000       2.63190000
C        0.43030000      -0.92560000       3.81330000
C        0.92970000      -1.80760000       0.12290000
C       -0.22520000      -2.72180000      -0.23580000
H       -0.38160000       1.96600000      -0.82990000
H       -0.92810000       1.88290000       0.85010000
H        0.77720000       2.16150000       0.49150000
H       -0.92080000      -0.33200000      -0.09950000
H        3.01890000      -0.73510000       0.50540000
H        2.32900000       0.92280000       0.53570000
H        0.25330000      -1.02000000       4.85620000
H        1.84890000      -2.40130000       0.16770000
H       -0.07020000      -3.12670000      -1.24130000
H       -0.24640000      -3.56380000       0.46390000
H       -1.20800000      -2.24810000      -0.21150000
