18
Properties=species:S:1:pos:R:3 gdb_34970=T pbc="F F F"
C       -0.10730000      -1.28510000      -0.12130000
C       -0.05570000      -0.08620000      -0.03760000
C       -0.00120000       1.35810000       0.06360000
C       -0.14790000       2.08670000       1.42770000
C        0.95040000       1.38150000       2.24290000
C        2.08380000       1.82760000       1.29110000
C        2.07070000       3.36000000       1.48040000
C        0.73910000       3.20840000       0.74970000
N        1.34070000       2.05130000      -0.05570000
H       -0.15050000      -2.34310000      -0.20270000
H       -0.64440000       1.80800000      -0.70110000
H       -1.11850000       2.27030000       1.88940000
H        1.07770000       1.77880000       3.25300000
H        0.80270000       0.30180000       2.30110000
H        3.00120000       1.24460000       1.24410000
H        2.09730000       3.75610000       2.49780000
H        2.79780000       3.86890000       0.84440000
H        0.23870000       4.00770000       0.20140000
