19
Properties=species:S:1:pos:R:3 gdb_90226=T pbc="F F F"
C       -0.52660000       1.42330000      -0.00680000
C       -0.02410000      -0.01090000      -0.05590000
C        1.15870000      -0.31570000      -1.07400000
C        2.04690000      -0.70180000       0.13660000
C        2.83510000       0.34250000       0.95420000
O        1.67290000       0.54100000       1.83830000
C        0.93690000      -0.45250000       1.09560000
C        1.11210000      -1.93000000       1.50450000
O        2.18630000      -2.08800000       0.50910000
H        0.29090000       2.12050000       0.19830000
H       -0.98700000       1.70220000      -0.96040000
H       -1.27430000       1.55270000       0.78240000
H       -0.86390000      -0.70210000      -0.17520000
H        0.97310000      -1.14830000      -1.75420000
H        1.50260000       0.54810000      -1.65010000
H        3.69790000      -0.05480000       1.49810000
H        3.10800000       1.27060000       0.43910000
H        1.47440000      -2.08550000       2.52570000
H        0.27210000      -2.60280000       1.29640000
