14
Properties=species:S:1:pos:R:3 gdb_57144=T pbc="F F F"
O        0.13770000       1.62090000      -0.05150000
C        0.11530000       0.20520000       0.04690000
C        0.66800000      -0.43290000      -1.15130000
C        1.16910000      -0.92760000      -2.13310000
C        1.72770000      -1.48830000      -3.24590000
N        2.20580000      -1.96190000      -4.19250000
C        0.83180000      -0.28300000       1.30220000
C        0.10170000      -0.41480000       2.56520000
O        0.44540000      -1.56320000       1.78170000
H        1.02990000       1.89580000      -0.29240000
H       -0.94090000      -0.07380000       0.13700000
H        1.90470000      -0.08450000       1.32400000
H        0.63660000      -0.31490000       3.50740000
H       -0.95880000      -0.17100000       2.59880000
