18
Properties=species:S:1:pos:R:3 gdb_15153=T pbc="F F F"
C        0.04160000       1.47310000      -0.00270000
C       -0.00950000       0.02020000      -0.08680000
C       -0.04000000      -1.18120000      -0.16290000
C       -0.10780000      -2.63560000      -0.24140000
C       -1.42930000      -3.21030000       0.31360000
C       -1.45950000      -4.71580000       0.23510000
C       -2.67670000      -5.46400000      -0.09940000
O       -1.64250000      -5.28210000      -1.06780000
H        0.91830000       1.81000000       0.56190000
H        0.09460000       1.92910000      -0.99760000
H       -0.84660000       1.87550000       0.49730000
H        0.00330000      -2.96290000      -1.28270000
H        0.73660000      -3.07550000       0.30690000
H       -1.55500000      -2.89720000       1.35690000
H       -2.27050000      -2.79830000      -0.25300000
H       -0.70020000      -5.23040000       0.82870000
H       -2.80630000      -6.48320000       0.26250000
H       -3.60090000      -4.92110000      -0.29510000
