19
Properties=species:S:1:pos:R:3 gdb_78970=T pbc="F F F"
C       -0.13680000       1.56360000       0.04180000
C        0.01190000       0.04670000      -0.00530000
C        0.97390000      -0.50430000      -1.07340000
C        2.36990000       0.01720000      -0.66750000
C        2.77500000      -1.32670000      -0.11870000
C        2.28740000      -0.25040000       0.82920000
C        0.80550000      -0.61280000       1.15250000
O        0.70090000      -2.00270000       0.79220000
C        1.39260000      -1.91730000      -0.44710000
H        0.83280000       2.06390000       0.12420000
H       -0.62910000       1.93760000      -0.86210000
H       -0.74610000       1.87030000       0.89890000
H       -0.97130000      -0.43090000      -0.06630000
H        0.67810000      -0.47300000      -2.12010000
H        2.96670000       0.79350000      -1.12790000
H        3.73680000      -1.81930000      -0.05770000
H        2.95650000       0.21990000       1.53570000
H        0.46280000      -0.45860000       2.17440000
H        1.29100000      -2.83300000      -1.02450000
