17
Properties=species:S:1:pos:R:3 gdb_124254=T pbc="F F F"
C       -0.00430000       1.51370000      -0.05140000
C       -0.04750000      -0.00320000       0.05510000
O       -0.10810000      -0.56900000       1.12750000
C       -0.01250000      -0.77390000      -1.19970000
C       -0.03860000      -2.14460000      -1.40080000
C        0.01760000      -2.32280000      -2.79710000
C        0.01940000      -3.59680000      -3.58150000
N        0.07480000      -1.14020000      -3.42490000
N        0.05540000      -0.22550000      -2.44790000
H        0.91270000       1.84310000      -0.55370000
H       -0.85540000       1.88800000      -0.63220000
H       -0.03790000       1.94090000       0.95090000
H       -0.09120000      -2.89180000      -0.62610000
H       -0.88620000      -4.18270000      -3.39210000
H        0.07060000      -3.37600000      -4.64950000
H        0.87530000      -4.22660000      -3.31670000
H        0.09090000       0.74900000      -2.69510000
