20
Properties=species:S:1:pos:R:3 gdb_7183=T pbc="F F F"
C       -0.09440000       1.51230000      -0.08660000
C       -0.01900000       0.01690000       0.17310000
O       -1.30300000      -0.53760000      -0.05400000
C       -1.38020000      -1.95490000       0.02510000
C       -1.39680000      -2.45520000       1.47170000
C       -2.65990000      -2.35060000      -0.72500000
C       -2.59860000      -2.02840000      -2.20230000
O       -2.96740000      -2.77180000      -3.07630000
H        0.88140000       1.97740000       0.08190000
H       -0.40070000       1.70900000      -1.11790000
H       -0.82210000       1.98100000       0.58190000
H        0.71830000      -0.45650000      -0.49630000
H        0.31350000      -0.17160000       1.20540000
H       -0.50900000      -2.39170000      -0.49330000
H       -1.46510000      -3.54710000       1.49930000
H       -0.48680000      -2.16570000       2.00420000
H       -2.25650000      -2.03900000       2.00640000
H       -2.88360000      -3.41390000      -0.60580000
H       -3.48810000      -1.77390000      -0.28940000
H       -2.17930000      -1.02600000      -2.43420000
