23
Properties=species:S:1:pos:R:3 gdb_100314=T pbc="F F F"
C        0.85210000       1.42780000       0.57780000
C        0.98160000      -0.06740000       0.26790000
C        0.80660000      -0.44860000      -1.21910000
C       -0.55230000       0.00760000      -1.77040000
O        1.76190000       0.18290000      -2.07410000
C        3.12980000       0.20100000      -1.68600000
C        0.85380000      -1.97350000      -1.35030000
C        1.39460000      -2.65310000      -2.52990000
O        2.11820000      -2.63660000      -1.28990000
H        1.50370000       2.02800000      -0.06330000
H       -0.17150000       1.78510000       0.43210000
H        1.12340000       1.62770000       1.61880000
H        1.95440000      -0.43850000       0.60860000
H        0.23520000      -0.62660000       0.84530000
H       -0.63370000       1.09540000      -1.73140000
H       -0.65240000      -0.30080000      -2.81450000
H       -1.37730000      -0.42670000      -1.19740000
H        3.50870000      -0.79630000      -1.45120000
H        3.67430000       0.60270000      -2.54520000
H        3.30880000       0.86550000      -0.83030000
H        0.06830000      -2.48260000      -0.78680000
H        1.00390000      -3.62610000      -2.82290000
H        1.83000000      -2.05300000      -3.32450000
