21
Properties=species:S:1:pos:R:3 gdb_93945=T pbc="F F F"
C       -0.03290000       1.50400000       0.08700000
C        0.14060000      -0.00300000       0.03560000
C        0.76270000      -0.55990000      -1.26440000
C        1.65020000      -1.74540000      -0.78120000
C        1.43830000      -1.72390000       0.75150000
O        1.03800000      -0.40380000       1.06830000
C        1.31550000      -3.05490000      -1.46120000
C        1.34930000      -4.36430000      -0.79790000
O        0.10550000      -3.71370000      -1.07420000
H        0.92900000       2.00340000      -0.06660000
H       -0.72710000       1.83640000      -0.69100000
H       -0.43040000       1.81330000       1.05770000
H       -0.83370000      -0.49380000       0.20060000
H       -0.00600000      -0.88210000      -1.97170000
H        1.36960000       0.20670000      -1.75490000
H        2.69940000      -1.52530000      -1.00640000
H        0.65100000      -2.44190000       1.02850000
H        2.34270000      -1.94810000       1.32230000
H        1.47480000      -3.04850000      -2.54160000
H        1.54630000      -5.26170000      -1.38260000
H        1.61340000      -4.43430000       0.25610000
