18
Properties=species:S:1:pos:R:3 gdb_13166=T pbc="F F F"
C       -0.09900000       1.55540000      -0.09220000
C       -0.03780000       0.01720000       0.00270000
C       -1.37850000      -0.56600000       0.01130000
C       -2.48360000      -1.03990000       0.02350000
C        0.83260000      -0.54660000      -1.13340000
C        0.80930000      -2.06420000      -1.41670000
C        0.26990000      -1.65000000      -2.80010000
O        0.29220000      -0.25120000      -2.43860000
H        0.90660000       1.98010000      -0.01070000
H       -0.52380000       1.84970000      -1.05470000
H       -0.71800000       1.97110000       0.70610000
H        0.46170000      -0.25800000       0.94360000
H       -3.46190000      -1.45260000       0.03730000
H        1.84150000      -0.12280000      -1.02500000
H        1.78290000      -2.55580000      -1.41350000
H        0.10830000      -2.62860000      -0.80090000
H        0.93240000      -1.85910000      -3.64890000
H       -0.74330000      -1.98930000      -3.04160000
