18
Properties=species:S:1:pos:R:3 gdb_95726=T pbc="F F F"
O       -0.22290000       1.49570000      -0.23660000
C       -0.03500000       0.11150000       0.01730000
C       -1.42470000      -0.51070000       0.07380000
C       -1.40880000      -2.02150000       0.26360000
O       -0.96270000      -2.75100000      -0.89280000
C        0.36650000      -2.98380000      -1.07180000
O        0.76690000      -4.06070000      -1.43260000
N        1.19540000      -1.90910000      -0.81680000
C        0.83210000      -0.51710000      -1.08270000
H        0.62990000       1.93740000      -0.17040000
H        0.47120000      -0.04970000       0.98320000
H       -1.98220000      -0.05730000       0.90090000
H       -1.96140000      -0.26600000      -0.85010000
H       -0.79930000      -2.30550000       1.12970000
H       -2.42530000      -2.38370000       0.43420000
H        2.15220000      -2.15290000      -1.02430000
H        0.31840000      -0.40550000      -2.04690000
H        1.76960000       0.04450000      -1.14930000
