17
Properties=species:S:1:pos:R:3 gdb_49714=T pbc="F F F"
N       -0.02710000       1.11540000      -0.63650000
C        0.01350000      -0.05580000      -0.18200000
C       -1.03780000      -1.06340000       0.25650000
C       -1.49480000      -2.02750000      -0.88410000
C       -0.33630000      -3.01030000      -0.52890000
C        0.15220000      -2.03760000       0.57720000
N        1.05970000      -0.97710000       0.10650000
C        2.40750000      -0.91780000      -0.10930000
O        2.97980000       0.04920000      -0.56280000
H        0.91470000       1.45470000      -0.84030000
H       -1.77160000      -0.73430000       0.98880000
H       -2.48690000      -2.44890000      -0.71410000
H       -1.47180000      -1.58910000      -1.88310000
H       -0.69050000      -3.95980000      -0.12070000
H        0.39160000      -3.21970000      -1.31550000
H        0.38510000      -2.42480000       1.56940000
H        2.92350000      -1.85210000       0.18810000
