17
Properties=species:S:1:pos:R:3 gdb_73754=T pbc="F F F"
C        0.07370000       1.50020000       0.12080000
C        0.00170000       0.01390000       0.02200000
C       -0.03460000      -0.72490000      -1.10980000
C       -0.06570000      -0.24890000      -2.44050000
C       -0.10720000       0.11950000      -3.58790000
C        0.00080000      -2.18850000      -0.77050000
O        1.19990000      -2.57750000      -0.06870000
C        0.02880000      -2.28390000       0.69620000
C       -0.00730000      -0.86960000       1.25650000
H        1.00790000       1.81430000       0.60390000
H        0.02310000       1.96710000      -0.86520000
H       -0.74360000       1.89370000       0.73850000
H       -0.13320000       0.45080000      -4.59620000
H       -0.41740000      -2.93650000      -1.43610000
H       -0.39180000      -3.11730000       1.25190000
H        0.85000000      -0.66780000       1.91090000
H       -0.91090000      -0.70060000       1.85820000
