16
Properties=species:S:1:pos:R:3 gdb_54160=T pbc="F F F"
C        0.38370000       0.87730000      -0.82550000
C       -0.06910000       0.10800000       0.39200000
O        0.47660000       0.18130000       1.46800000
C       -1.31420000      -0.76970000       0.27020000
C       -2.15370000      -0.86440000       1.52190000
O       -2.02110000      -0.69570000      -0.97490000
C       -1.33460000      -1.90880000      -0.69280000
C       -0.21950000      -2.26220000      -1.54530000
N        0.66030000      -2.58020000      -2.22410000
H        1.22450000       1.51270000      -0.54680000
H        0.68650000       0.19850000      -1.62870000
H       -0.44040000       1.48060000      -1.21910000
H       -2.55480000       0.12080000       1.77800000
H       -2.98910000      -1.55300000       1.37860000
H       -1.53380000      -1.19980000       2.35530000
H       -1.97110000      -2.75640000      -0.44190000
