23
Properties=species:S:1:pos:R:3 gdb_61675=T pbc="F F F"
C       -0.00910000       1.59600000       0.20320000
C       -0.04920000       0.06400000       0.06760000
C        0.62770000      -0.46060000      -1.22010000
C       -0.05060000      -0.06310000      -2.52910000
C        0.18490000       1.34000000      -3.16810000
C        0.24010000       0.65760000      -4.55990000
C        0.50150000      -0.69230000      -3.84090000
C        0.65050000      -0.55650000       1.26090000
O        0.15880000      -1.34110000       2.03010000
H        1.02290000       1.96510000       0.20470000
H       -0.53400000       2.07860000      -0.62390000
H       -0.48340000       1.91960000       1.13510000
H       -1.08730000      -0.28620000       0.09510000
H        1.67720000      -0.13350000      -1.24210000
H        0.65050000      -1.55790000      -1.17100000
H       -1.12770000      -0.25790000      -2.45660000
H       -0.57190000       2.11250000      -3.01010000
H        1.16010000       1.74720000      -2.88060000
H       -0.73470000       0.67010000      -5.05580000
H        0.99270000       1.00990000      -5.26880000
H        1.57360000      -0.90010000      -3.75520000
H        0.00550000      -1.58780000      -4.22370000
H        1.71170000      -0.22630000       1.38180000
