18
Properties=species:S:1:pos:R:3 gdb_49384=T pbc="F F F"
O        0.11710000       0.07900000       0.40370000
C        0.14380000       1.26850000       0.19220000
N        1.22460000       1.96420000      -0.28080000
C        2.64670000       1.93360000      -0.10990000
C        1.86230000       3.23200000      -0.05190000
C        2.19140000       3.68230000       1.39170000
C        3.73870000       3.40870000       1.39470000
C        3.24910000       1.91620000       1.31370000
C        2.08350000       2.37890000       2.22460000
H       -0.74260000       1.92760000       0.28730000
H        3.25140000       1.63620000      -0.96030000
H        1.84590000       3.95820000      -0.85850000
H        1.76610000       4.62650000       1.73030000
H        4.32340000       3.79710000       0.55560000
H        4.22240000       3.65720000       2.34280000
H        3.89050000       1.07590000       1.57390000
H        2.42220000       2.53720000       3.24980000
H        1.15460000       1.81080000       2.23340000
