15
Properties=species:S:1:pos:R:3 gdb_82269=T pbc="F F F"
O        0.09350000       1.38110000       0.11040000
C        0.06150000      -0.02670000       0.03220000
C       -1.36340000      -0.58290000      -0.04410000
O       -2.08930000      -0.01220000      -1.13990000
C       -1.49820000      -1.33530000      -1.29340000
C       -0.17210000      -1.30320000      -1.97460000
C        0.70350000      -0.57330000      -1.26120000
C        2.02830000      -0.23720000      -1.61440000
C        3.16900000       0.05560000      -1.86970000
H       -0.50490000       1.69680000      -0.58020000
H        0.59270000      -0.39420000       0.91640000
H       -1.93770000      -0.77990000       0.85610000
H       -2.21190000      -2.13820000      -1.44310000
H        0.02860000      -1.77000000      -2.93020000
H        4.17090000       0.31670000      -2.10570000
