21
Properties=species:S:1:pos:R:3 gdb_87203=T pbc="F F F"
C       -0.27510000       1.59610000       0.24040000
C       -0.10810000       0.09590000       0.08400000
C       -1.33230000      -0.64590000      -0.43650000
C       -1.69840000      -0.28030000      -1.85680000
C       -3.08310000      -0.31170000      -2.34240000
O       -2.44000000       0.92970000      -2.04990000
C        1.25770000      -0.43240000      -0.33540000
C        0.75810000      -0.63390000       1.07580000
O        1.31310000       0.10600000       2.12450000
H        0.60680000       2.03820000       0.70680000
H       -0.44800000       2.07610000      -0.72670000
H       -1.13760000       1.82240000       0.87730000
H       -1.15150000      -1.72850000      -0.39820000
H       -2.19420000      -0.44090000       0.21100000
H       -0.90410000      -0.42430000      -2.59190000
H       -3.28760000      -0.49790000      -3.39590000
H       -3.88360000      -0.59470000      -1.65930000
H        1.31750000      -1.29300000      -0.99470000
H        2.04670000       0.29970000      -0.47390000
H        0.44510000      -1.64120000       1.35520000
H        2.21590000      -0.20010000       2.25760000
