18
Properties=species:S:1:pos:R:3 gdb_5303=T pbc="F F F"
C        0.03540000       1.60000000       0.15710000
C       -0.03930000       0.07700000      -0.01380000
C        0.79820000      -0.63720000       1.06680000
C       -1.46350000      -0.39810000      -0.01580000
C       -2.66230000       0.21240000       0.26040000
N       -3.71620000      -0.66620000       0.12790000
C       -3.16980000      -1.80340000      -0.22690000
N       -1.81240000      -1.70020000      -0.32790000
H        1.07470000       1.93840000       0.11250000
H       -0.52750000       2.11650000      -0.62530000
H       -0.37400000       1.90410000       1.12630000
H        0.40400000      -0.17020000      -0.99060000
H        0.41280000      -0.40690000       2.06530000
H        0.77670000      -1.72530000       0.94650000
H        1.84420000      -0.31710000       1.01960000
H       -2.82820000       1.23970000       0.54590000
H       -3.69300000      -2.72720000      -0.42540000
H       -1.17700000      -2.43430000      -0.59260000
