13
Properties=species:S:1:pos:R:3 gdb_3657=T pbc="F F F"
C        0.04730000       1.49820000       0.03840000
C       -0.07170000       0.01650000       0.05140000
C       -1.13330000      -0.84200000       0.00950000
N       -2.51030000      -0.56990000       0.00200000
C       -0.51950000      -2.12560000       0.07470000
N        0.78650000      -2.04970000       0.14350000
O        1.07780000      -0.69750000       0.14030000
H        0.89070000       1.81140000      -0.58410000
H       -0.86170000       1.95280000      -0.36740000
H        0.20480000       1.90780000       1.04320000
H       -2.71580000       0.39440000      -0.22690000
H       -3.02200000      -1.17130000      -0.63190000
H       -0.99560000      -3.09660000       0.07000000
