10
Properties=species:S:1:pos:R:3 gdb_130757=T pbc="F F F"
O        0.02520000      -0.04720000       0.00250000
C        0.05410000       1.13870000       0.00830000
O       -1.21100000       1.80450000       0.02870000
N       -1.35100000       3.14820000       0.03730000
C       -0.25260000       3.84190000       0.02610000
C        1.05250000       3.20720000       0.00570000
N        1.19960000       1.93220000      -0.00270000
C       -0.37100000       5.26720000       0.03490000
N       -0.39420000       6.42330000       0.04110000
H        1.94270000       3.83540000      -0.00280000
