18
Properties=species:S:1:pos:R:3 gdb_62611=T pbc="F F F"
C       -0.06600000       1.60180000      -0.00180000
C        0.06900000       0.08730000      -0.00730000
O       -1.20690000      -0.52740000       0.12090000
C        0.75220000      -0.63810000      -1.15800000
C        2.25130000      -0.74160000      -1.04250000
C        2.99970000       0.16320000      -0.12090000
C        2.37870000       0.16130000       1.05960000
C        1.12190000      -0.65430000       0.91550000
N        1.39600000      -1.63780000      -0.23440000
H        0.89900000       2.09830000      -0.11800000
H       -0.72460000       1.91330000      -0.81840000
H       -0.51320000       1.94820000       0.93910000
H       -1.59610000      -0.21830000       0.94670000
H        0.22700000      -0.94210000      -2.05860000
H        2.75990000      -1.21860000      -1.87550000
H        3.88690000       0.71420000      -0.40380000
H        2.62990000       0.74810000       1.93380000
H        0.70800000      -1.12090000       1.80960000
