15
Properties=species:S:1:pos:R:3 gdb_69191=T pbc="F F F"
C       -0.08630000       1.50660000       0.03540000
C        0.13330000       0.03070000       0.01560000
O       -0.72060000      -0.81810000       0.76780000
C        0.69840000      -0.89210000       1.04000000
C        1.25350000      -1.78810000      -0.05390000
O        1.98090000      -2.72890000      -0.09210000
C        0.65160000      -0.83340000      -1.16770000
C       -0.30260000      -1.33650000      -2.12610000
C       -1.09940000      -1.75960000      -2.92030000
H        0.80720000       2.03670000      -0.30790000
H       -0.91570000       1.77440000      -0.62750000
H       -0.33270000       1.84070000       1.04620000
H        1.02550000      -0.72860000       2.05980000
H        1.50770000      -0.35850000      -1.66530000
H       -1.80530000      -2.14150000      -3.61560000
