18
Properties=species:S:1:pos:R:3 gdb_85690=T pbc="F F F"
C       -0.86630000       1.23350000      -0.01430000
C       -0.01350000      -0.02200000      -0.04530000
N        1.29030000       0.12200000      -0.75540000
C        2.01320000      -0.62680000       0.30170000
C        3.27860000      -0.03050000       0.73040000
N        4.27170000       0.43360000       1.09650000
C        0.77840000      -0.43710000       1.20500000
C        0.70070000       0.09530000       2.57710000
N        0.41370000      -1.32790000       2.28370000
H       -0.28330000       2.08400000       0.34770000
H       -1.23550000       1.47250000      -1.01700000
H       -1.73850000       1.09640000       0.63530000
H       -0.60710000      -0.87330000      -0.41540000
H        1.33920000      -0.30040000      -1.67560000
H        2.18030000      -1.69130000       0.08860000
H        1.61210000       0.26930000       3.14160000
H       -0.12510000       0.75910000       2.81900000
H       -0.58950000      -1.50060000       2.28090000
