16
Properties=species:S:1:pos:R:3 gdb_22127=T pbc="F F F"
O       -0.38430000       1.22780000       0.78050000
N       -0.16830000      -0.14770000       0.59040000
C       -1.07470000      -0.65170000      -0.13500000
C       -2.36340000      -0.16570000      -0.75830000
C       -2.78150000      -1.67730000      -0.91800000
O       -3.23680000      -2.06810000      -2.16870000
C       -1.30110000      -2.08610000      -0.54700000
C       -3.75520000      -2.09940000       0.15400000
O       -4.77170000      -2.69580000      -0.11010000
H        0.35130000       1.47300000       1.35220000
H       -2.99270000       0.49350000      -0.15480000
H       -2.22490000       0.28030000      -1.74780000
H       -4.08070000      -2.52430000      -2.01420000
H       -0.77400000      -2.35890000      -1.46650000
H       -1.14590000      -2.86680000       0.20200000
H       -3.48560000      -1.83250000       1.19590000
