23
Properties=species:S:1:pos:R:3 gdb_86609=T pbc="F F F"
C       -0.17630000       1.48930000      -0.05780000
C        0.00570000      -0.02450000       0.02170000
C        1.11910000      -0.57860000      -0.90870000
O        1.40630000       0.23340000      -2.02490000
C        2.09750000      -0.59010000       0.29400000
C        0.85770000      -0.54390000       1.23430000
C        0.93480000       0.25160000       2.50840000
C       -0.05730000       0.01350000       3.62180000
C        1.38010000      -0.41180000       3.78980000
H        0.77200000       2.02670000       0.03440000
H       -0.61070000       1.76930000      -1.02120000
H       -0.84370000       1.83910000       0.73610000
H       -0.96840000      -0.50980000      -0.09340000
H        0.88100000      -1.60570000      -1.22270000
H        2.14720000      -0.15700000      -2.49870000
H        2.79230000      -1.42820000       0.39420000
H        2.66170000       0.34690000       0.33290000
H        0.54450000      -1.56620000       1.47780000
H        1.25820000       1.28120000       2.38120000
H       -0.41280000       0.86640000       4.18960000
H       -0.80160000      -0.76330000       3.47870000
H        1.60110000      -1.47390000       3.75840000
H        2.00770000       0.15050000       4.47250000
