14
Properties=species:S:1:pos:R:3 gdb_29242=T pbc="F F F"
C       -0.31060000       1.53510000       0.00290000
C       -0.00600000       0.06670000      -0.02380000
C        0.10500000      -0.65860000      -1.14390000
O        0.37900000      -1.98110000      -1.18690000
C        0.56710000      -2.68510000      -0.03060000
N        0.81960000      -3.90970000      -0.11610000
O        0.46510000      -1.99560000       1.14010000
C        0.18370000      -0.62690000       1.24530000
O        0.12390000      -0.15280000       2.34120000
H        0.49180000       2.08970000       0.49930000
H       -0.43260000       1.92910000      -1.00910000
H       -1.22730000       1.73150000       0.56740000
H       -0.01400000      -0.25920000      -2.14410000
H        0.93660000      -4.31200000       0.81090000
