17
Properties=species:S:1:pos:R:3 gdb_126044=T pbc="F F F"
C        1.11280000       1.17510000      -0.64040000
C        0.15430000       0.14900000      -0.09350000
N        0.71760000      -1.11870000       0.39210000
C        0.06270000      -0.21900000       1.35710000
C        0.92390000       0.35350000       2.40950000
C        2.27330000       0.19350000       2.62760000
N        2.51040000       0.93340000       3.73580000
N        1.38770000       1.51690000       4.19360000
N        0.42570000       1.16560000       3.39010000
H        2.01540000       1.23710000      -0.02850000
H        1.41130000       0.91710000      -1.66200000
H        0.64420000       2.16460000      -0.66230000
H       -0.79190000       0.08560000      -0.63030000
H        0.11050000      -1.90130000       0.16670000
H       -0.93350000      -0.47540000       1.71080000
H        3.02940000      -0.37110000       2.11130000
H        3.37670000       1.07760000       4.22930000
