16
Properties=species:S:1:pos:R:3 gdb_43363=T pbc="F F F"
O       -0.12070000       0.25870000       0.81750000
C       -0.07540000       1.24970000       0.11930000
C       -1.30200000       1.78960000      -0.53380000
C       -1.66980000       3.07910000      -0.51350000
C       -0.92550000       4.22150000       0.02190000
C        0.39870000       4.33410000       0.18880000
C        1.40570000       3.31460000      -0.19320000
C        2.05390000       2.39600000       0.82020000
N        1.11950000       1.89970000      -0.15970000
H       -1.99270000       1.03120000      -0.88780000
H       -2.66350000       3.32060000      -0.88540000
H       -1.53850000       5.07940000       0.28870000
H        0.80300000       5.26890000       0.57090000
H        2.03930000       3.61240000      -1.03160000
H        3.09260000       2.10340000       0.69370000
H        1.70550000       2.45160000       1.84800000
