16
Properties=species:S:1:pos:R:3 gdb_50960=T pbc="F F F"
N       -0.42480000       1.37320000       0.13980000
C       -0.37020000       0.11900000       0.22680000
O       -1.22430000      -0.63800000      -0.50620000
C       -1.17530000      -2.04520000      -0.34150000
C       -2.21250000      -2.55670000       0.67370000
C       -1.87500000      -2.21610000       2.04790000
C       -1.57010000      -1.92430000       3.17330000
C       -1.39740000      -2.65100000      -1.72710000
O       -1.83620000      -3.75470000      -1.90860000
H        0.28420000       1.79660000       0.73450000
H        0.31560000      -0.47620000       0.84220000
H       -0.16830000      -2.35470000      -0.01830000
H       -3.18920000      -2.13810000       0.40500000
H       -2.28620000      -3.64210000       0.54420000
H       -1.32180000      -1.67420000       4.17510000
H       -1.10260000      -1.97500000      -2.55700000
