15
Properties=species:S:1:pos:R:3 gdb_1304=T pbc="F F F"
C       -0.11540000       1.54910000       0.05420000
C       -0.03030000       0.02450000      -0.02300000
C       -1.39460000      -0.64240000       0.15400000
C        0.85940000      -0.54630000      -1.15440000
O        1.81300000      -1.05800000      -0.16830000
C        1.06570000      -0.57420000       0.87610000
O        1.29900000      -0.65750000       2.03900000
H        0.86470000       2.01630000      -0.08200000
H       -0.78940000       1.93600000      -0.71740000
H       -0.50250000       1.85790000       1.02970000
H       -2.09340000      -0.29810000      -0.61570000
H       -1.32340000      -1.73240000       0.08860000
H       -1.81510000      -0.39090000       1.13210000
H        0.43370000      -1.36530000      -1.73860000
H        1.33860000       0.18510000      -1.80920000
