23
Properties=species:S:1:pos:R:3 gdb_107661=T pbc="F F F"
C       -0.40700000       1.45970000      -0.02240000
C        0.20870000       0.05730000       0.06220000
C        0.80440000      -0.43350000      -1.25010000
C       -0.16110000      -1.05040000      -2.24600000
C        0.80530000      -1.92720000      -1.48600000
O        1.82950000      -2.55430000      -2.20610000
C        3.06840000      -1.86100000      -2.21150000
C        2.89470000      -0.43400000      -2.72240000
C        2.00770000       0.36040000      -1.75080000
H        0.34340000       2.21450000      -0.27780000
H       -1.19140000       1.49970000      -0.78560000
H       -0.85330000       1.74890000       0.93410000
H        0.98780000       0.04560000       0.83700000
H       -0.56040000      -0.65170000       0.39290000
H       -1.21510000      -1.08090000      -1.98840000
H        0.04140000      -0.93440000      -3.30530000
H        0.41060000      -2.56630000      -0.69790000
H        3.51200000      -1.84830000      -1.20140000
H        3.72720000      -2.44450000      -2.86100000
H        3.86990000       0.05480000      -2.82380000
H        2.44850000      -0.47420000      -3.72300000
H        1.68740000       1.30470000      -2.20620000
H        2.61560000       0.63020000      -0.87580000
