17
Properties=species:S:1:pos:R:3 gdb_13123=T pbc="F F F"
C       -0.21200000       1.31610000      -0.09310000
O       -0.00150000      -0.07490000      -0.02950000
C        0.62300000      -0.47980000       1.16890000
C        0.85920000      -1.97500000       1.09940000
N        2.04400000      -2.42890000       0.32160000
C        2.50830000      -3.33970000       1.40050000
C        1.47660000      -2.67490000       2.32530000
O        1.26210000      -2.66240000       3.49930000
H        0.73580000       1.87490000      -0.04660000
H       -0.70130000       1.52920000      -1.04650000
H       -0.85870000       1.66940000       0.72580000
H        1.58480000       0.03910000       1.30560000
H       -0.01340000      -0.25510000       2.04200000
H       -0.08490000      -2.46520000       0.81450000
H        1.81670000      -2.89010000      -0.55050000
H        2.29620000      -4.40900000       1.25590000
H        3.56140000      -3.22620000       1.67980000
