23
Properties=species:S:1:pos:R:3 gdb_116139=T pbc="F F F"
C       -0.08080000       1.57030000       0.02240000
C        0.03160000       0.04410000       0.01580000
C        0.78020000      -0.51060000       1.23280000
O        0.06270000      -0.10170000       2.38950000
C        0.48860000      -0.76230000       3.56550000
C        0.18260000      -2.25880000       3.49390000
C        0.65080000      -2.83010000       2.17490000
C        0.76610000      -4.32540000       2.07760000
C        0.94240000      -2.00890000       1.16500000
H        0.90990000       2.03880000       0.00830000
H       -0.63110000       1.92700000      -0.85370000
H       -0.60070000       1.91450000       0.91950000
H       -0.96560000      -0.41120000      -0.00570000
H        0.55470000      -0.29250000      -0.88760000
H        1.78650000      -0.04490000       1.25520000
H        1.57030000      -0.61130000       3.71890000
H       -0.03830000      -0.28420000       4.39650000
H        0.67410000      -2.77880000       4.32750000
H       -0.89550000      -2.43200000       3.61820000
H       -0.19660000      -4.80900000       2.28980000
H        1.09290000      -4.64330000       1.08380000
H        1.47810000      -4.71750000       2.81560000
H        1.31300000      -2.40590000       0.22200000
