22
Properties=species:S:1:pos:R:3 gdb_120925=T pbc="F F F"
C        0.00430000       1.53330000       0.11190000
C       -0.05020000       0.03840000      -0.00600000
C       -0.86870000      -0.81940000       0.87600000
N        0.60010000      -0.89730000       1.00990000
C        1.04200000      -1.76520000      -0.13830000
C        0.50200000      -0.76020000      -1.19520000
C       -0.44640000      -1.21610000      -2.29950000
C        0.24740000      -2.06440000      -3.35890000
O       -0.72470000      -2.44260000      -4.32140000
H        0.98770000       1.91780000      -0.18040000
H       -0.74680000       2.00350000      -0.53430000
H       -0.19070000       1.84970000       1.14070000
H       -1.34620000      -0.34100000       1.72620000
H       -1.40840000      -1.68030000       0.48640000
H        2.12780000      -1.87890000      -0.13380000
H        0.58120000      -2.76030000      -0.13070000
H        1.33960000      -0.21110000      -1.64120000
H       -1.27560000      -1.79860000      -1.88220000
H       -0.89330000      -0.34330000      -2.79190000
H        1.06410000      -1.48580000      -3.82190000
H        0.70560000      -2.94940000      -2.88690000
H       -0.29430000      -2.98760000      -4.98650000
