15
Properties=species:S:1:pos:R:3 gdb_47068=T pbc="F F F"
O        0.15060000       0.13830000       0.49580000
C        0.06090000       1.21560000      -0.00430000
O       -1.06820000       1.95330000       0.06760000
C       -1.31050000       2.94810000      -0.94160000
C       -0.15490000       3.91520000      -1.03980000
O        0.03250000       4.70000000       0.15360000
C        1.26930000       4.02270000       0.47330000
C        1.18240000       3.18540000      -0.81950000
O        1.10020000       1.77140000      -0.68560000
H       -1.47840000       2.45770000      -1.90890000
H       -2.22660000       3.45580000      -0.63440000
H       -0.24160000       4.54030000      -1.93620000
H        2.11500000       4.71590000       0.53430000
H        1.20130000       3.44090000       1.39950000
H        1.96780000       3.35890000      -1.55290000
