18
Properties=species:S:1:pos:R:3 gdb_17243=T pbc="F F F"
C        0.02740000       1.27630000      -0.23820000
O       -0.09790000      -0.04760000       0.25430000
C       -1.37270000      -0.54940000       0.15820000
C       -2.57440000      -0.23310000       1.04800000
C       -3.19370000      -1.52580000       0.43980000
C       -3.43760000      -1.17440000      -1.05600000
C       -1.91770000      -1.11830000      -1.17390000
C       -1.73160000      -1.99910000       0.05150000
H        1.07630000       1.55980000      -0.12780000
H       -0.25660000       1.33870000      -1.29780000
H       -0.59370000       1.98120000       0.33190000
H       -2.31950000      -0.36480000       2.10340000
H       -3.12620000       0.70400000       0.90850000
H       -3.91810000      -2.10440000       1.00810000
H       -3.85270000      -2.02190000      -1.60990000
H       -4.02380000      -0.27300000      -1.27260000
H       -1.29710000      -1.09940000      -2.06100000
H       -1.16440000      -2.90280000       0.21740000
