14
Properties=species:S:1:pos:R:3 gdb_20463=T pbc="F F F"
C        0.01150000       1.54290000       0.22200000
N        1.27840000       1.97080000      -0.44220000
C        2.19990000       0.80400000      -0.50590000
C        1.28220000      -0.38220000      -0.36890000
N        1.37560000      -1.67190000      -0.53050000
O        0.09620000      -2.14740000      -0.19700000
C       -0.69580000      -1.10690000       0.15260000
C        0.00080000       0.04820000       0.05920000
H        0.03580000       1.82640000       1.28230000
H       -0.84030000       2.05830000      -0.22970000
H        1.05050000       2.23370000      -1.39430000
H        2.78080000       0.81730000      -1.43110000
H        2.91120000       0.83630000       0.32930000
H       -1.70600000      -1.37190000       0.42310000
