16
Properties=species:S:1:pos:R:3 gdb_17585=T pbc="F F F"
C       -0.01120000       1.51480000       0.10000000
C       -0.02350000       0.01590000       0.03120000
C        1.17620000      -0.83750000      -0.33680000
C        0.56640000      -0.98360000       1.04120000
O        1.24530000      -0.64600000       2.19560000
C       -0.70590000      -1.80190000       0.96200000
O       -1.83100000      -0.96090000       1.27420000
C       -1.25920000      -0.86500000      -0.03380000
H        0.93410000       1.87390000       0.51880000
H       -0.13490000       1.96800000      -0.89000000
H       -0.82020000       1.87200000       0.74470000
H        1.09880000      -1.62910000      -1.07770000
H        2.12390000      -0.30540000      -0.34830000
H        1.99310000      -1.24380000       2.29970000
H       -0.85250000      -2.87170000       1.05840000
H       -1.90110000      -1.08050000      -0.88040000
