14
Properties=species:S:1:pos:R:3 gdb_129377=T pbc="F F F"
N       -0.09830000       1.32550000       0.12780000
C        0.05560000      -0.02590000       0.02290000
N        1.13660000      -0.71130000      -0.05750000
C       -1.23330000      -0.78260000       0.03460000
C       -1.26200000      -2.18570000       0.03090000
N       -2.41530000      -2.83340000       0.03380000
C       -3.50170000      -2.04710000       0.04000000
N       -3.52900000      -0.71740000       0.04320000
N       -2.36200000      -0.07860000       0.04050000
H        0.68320000       1.93050000      -0.05610000
H       -1.03140000       1.69680000       0.03290000
H        1.96340000      -0.11240000      -0.05900000
H       -0.33630000      -2.75070000       0.02520000
H       -4.47100000      -2.53660000       0.04270000
