12
Properties=species:S:1:pos:R:3 gdb_24877=T pbc="F F F"
N       -0.14860000       1.31000000       0.00890000
C        0.01480000       0.05230000       0.00100000
N       -1.14640000      -0.76040000       0.00280000
C       -1.06040000      -2.10520000      -0.00500000
N        0.06160000      -2.76190000      -0.01480000
C        1.17640000      -1.94330000      -0.01630000
N        1.21960000      -0.65150000      -0.00940000
C       -2.31000000      -2.82960000      -0.00230000
N       -3.32560000      -3.37980000       0.00020000
H        0.76240000       1.76590000       0.00650000
H       -2.03850000      -0.28280000       0.01030000
H        2.12370000      -2.47790000      -0.02440000
