18
Properties=species:S:1:pos:R:3 gdb_65373=T pbc="F F F"
O       -0.01260000       1.34470000       0.02760000
C        0.04580000      -0.04890000      -0.00140000
C       -0.47520000      -0.80990000       1.21150000
C       -1.29120000      -0.78420000      -0.05590000
N       -2.42640000       0.09400000      -0.09880000
C       -3.36580000      -0.07530000      -1.20550000
C       -3.74360000      -0.47930000       0.17680000
C        1.16350000      -0.57870000      -0.73300000
C        2.09420000      -1.04570000      -1.33420000
H       -0.96070000       1.55550000       0.01090000
H        0.00410000      -1.74120000       1.48930000
H       -0.81410000      -0.18760000       2.03240000
H       -1.34430000      -1.69930000      -0.64630000
H       -3.75580000       0.84130000      -1.63710000
H       -3.15990000      -0.86680000      -1.92280000
H       -3.79070000      -1.54390000       0.39290000
H       -4.41110000       0.13950000       0.76910000
H        2.92040000      -1.44570000      -1.86780000
