23
Properties=species:S:1:pos:R:3 gdb_100880=T pbc="F F F"
C       -0.33670000       1.56240000      -0.11220000
C       -0.09990000       0.04910000      -0.07670000
C        0.80530000      -0.47410000      -1.20590000
C        2.23930000       0.06310000      -1.13910000
C        0.79190000      -2.02690000      -1.24140000
O        1.50470000      -2.54410000      -2.36250000
C        0.75550000      -2.58260000      -3.55700000
C        1.37300000      -2.62020000      -0.03490000
C        1.83310000      -3.09520000       0.96830000
H        0.59050000       2.12380000       0.03630000
H       -0.76500000       1.87570000      -1.07120000
H       -1.03280000       1.86500000       0.67620000
H        0.33410000      -0.23530000       0.88940000
H       -1.07040000      -0.46210000      -0.13590000
H        0.36080000      -0.15570000      -2.15930000
H        2.69510000      -0.16400000      -0.16970000
H        2.85340000      -0.39890000      -1.91610000
H        2.26560000       1.14650000      -1.28290000
H       -0.26020000      -2.35340000      -1.30580000
H        1.38710000      -3.05940000      -4.31030000
H       -0.16460000      -3.17580000      -3.43880000
H        0.47710000      -1.58230000      -3.91920000
H        2.24190000      -3.52530000       1.84920000
