17
Properties=species:S:1:pos:R:3 gdb_12083=T pbc="F F F"
O       -0.10350000       1.44920000      -0.03930000
C        0.04220000       0.03330000       0.06400000
C       -1.36780000      -0.53700000      -0.01990000
O       -2.16000000       0.04250000       0.99510000
C       -2.09200000      -0.57870000      -1.40190000
N       -2.36650000      -2.05860000      -1.27520000
C       -1.04250000      -2.69680000      -1.22550000
C       -1.54660000      -2.05120000       0.00420000
H        0.72750000       1.86590000       0.20410000
H        0.67890000      -0.35840000      -0.74030000
H        0.48470000      -0.25240000       1.02960000
H       -1.93480000       0.98240000       0.99250000
H       -3.02760000      -0.01930000      -1.37730000
H       -1.51650000      -0.31270000      -2.29500000
H       -1.09050000      -3.78090000      -1.27000000
H       -0.21960000      -2.26110000      -1.78860000
H       -1.85440000      -2.59980000       0.88820000
