20
Properties=species:S:1:pos:R:3 gdb_85609=T pbc="F F F"
C       -1.17460000       0.73200000       0.12080000
C        0.23000000       0.13130000      -0.00220000
N        0.75350000       0.47160000      -1.32420000
C        1.94940000       0.10460000      -1.87260000
O        2.26580000       0.43730000      -3.00100000
C        2.86090000      -0.71340000      -0.96910000
C        3.43400000       0.11750000       0.19130000
C        2.44050000       0.60300000       1.21260000
C        1.11000000       0.59680000       1.14730000
H       -1.13180000       1.82590000       0.08180000
H       -1.82140000       0.37780000      -0.68740000
H       -1.62980000       0.44370000       1.07160000
H        0.12030000      -0.96290000       0.06400000
H        0.17540000       1.03540000      -1.93030000
H        2.32460000      -1.58180000      -0.56830000
H        3.67190000      -1.08080000      -1.59990000
H        4.18760000      -0.48660000       0.71350000
H        3.98760000       0.97620000      -0.21500000
H        2.89170000       0.99880000       2.12110000
H        0.55900000       0.95690000       2.01350000
