16
Properties=species:S:1:pos:R:3 gdb_50386=T pbc="F F F"
O        0.78760000      -0.31440000      -0.08650000
C        0.34960000       0.80280000      -0.01920000
C        1.18120000       2.06260000       0.07940000
C        0.93010000       3.02550000      -1.12100000
C        0.93050000       4.39150000      -0.49230000
C        0.88160000       4.32920000       0.84370000
C        0.83770000       2.89650000       1.34760000
C        0.82880000       5.44270000       1.72530000
N        0.78740000       6.32670000       2.47280000
H       -0.75120000       0.99380000      -0.02930000
H        2.23230000       1.76720000       0.10180000
H        1.68880000       2.91110000      -1.90130000
H       -0.03910000       2.83450000      -1.60630000
H        0.93420000       5.30900000      -1.06830000
H       -0.16360000       2.66490000       1.73640000
H        1.54080000       2.71050000       2.16360000
