17
Properties=species:S:1:pos:R:3 gdb_101074=T pbc="F F F"
N       -0.48090000       1.41940000      -0.22390000
C       -0.04100000       0.03480000      -0.02440000
C       -1.27250000      -0.78890000       0.39600000
O       -1.91450000      -0.17200000       1.48330000
C        0.68240000      -0.51890000      -1.25510000
C        0.43600000      -1.84790000      -1.85490000
O       -0.11500000      -0.66860000      -2.43770000
C        1.98020000       0.09900000      -1.49140000
N        3.00620000       0.61370000      -1.62720000
H        0.30020000       2.06620000      -0.19830000
H       -0.92780000       1.51410000      -1.13240000
H        0.66410000       0.03290000       0.81380000
H       -1.94490000      -0.90010000      -0.47170000
H       -0.96830000      -1.78990000       0.71870000
H       -1.88310000       0.77580000       1.28240000
H        1.22920000      -2.32480000      -2.42660000
H       -0.27940000      -2.51760000      -1.38530000
