23
Properties=species:S:1:pos:R:3 gdb_104421=T pbc="F F F"
C       -0.11150000       1.59220000       0.06370000
C       -0.00290000       0.05200000       0.02390000
C       -1.42290000      -0.54530000       0.03000000
O       -2.12470000      -0.07550000       1.17280000
C        0.70710000      -0.42260000      -1.26470000
C        2.23160000      -0.27840000      -1.18230000
C        2.80040000      -1.10900000      -0.02410000
C        1.97010000      -0.96540000       1.22440000
C        0.74420000      -0.44440000       1.24590000
H        0.87700000       2.05760000       0.02620000
H       -0.69740000       1.95930000      -0.78760000
H       -0.60830000       1.92050000       0.97920000
H       -1.94000000      -0.24840000      -0.89800000
H       -1.35130000      -1.64390000       0.03710000
H       -2.98500000      -0.50320000       1.19520000
H        0.46470000      -1.48070000      -1.43750000
H        0.31630000       0.13220000      -2.12590000
H        2.69020000      -0.58150000      -2.12970000
H        2.49370000       0.77590000      -1.03400000
H        2.85030000      -2.17120000      -0.30900000
H        3.83770000      -0.81590000       0.18140000
H        2.41560000      -1.31760000       2.15270000
H        0.20320000      -0.36150000       2.18460000
