23
Properties=species:S:1:pos:R:3 gdb_122142=T pbc="F F F"
C        0.13320000       1.27410000       0.27030000
C       -0.11590000      -0.14190000      -0.25450000
C       -1.43500000      -0.71900000       0.24160000
O       -1.57200000      -2.02920000      -0.28490000
C       -2.83050000      -2.66150000      -0.10070000
C       -2.60780000      -4.07900000      -0.63370000
O       -1.55730000      -4.72920000       0.08020000
C       -3.32390000      -2.65960000       1.35710000
O       -2.36910000      -3.13840000       2.27810000
H        1.08710000       1.66580000      -0.09400000
H       -0.65390000       1.96430000      -0.05300000
H        0.16220000       1.29450000       1.36520000
H       -0.11970000      -0.14810000      -1.35050000
H        0.69480000      -0.80980000       0.05980000
H       -1.44930000      -0.74710000       1.33970000
H       -2.27530000      -0.08740000      -0.09220000
H       -3.60330000      -2.16530000      -0.71530000
H       -3.50760000      -4.68670000      -0.50170000
H       -2.37480000      -4.03380000      -1.70650000
H       -0.80410000      -4.12710000       0.01140000
H       -3.58020000      -1.64120000       1.66800000
H       -4.26160000      -3.24190000       1.38520000
H       -2.00720000      -3.95010000       1.89410000
