20
Properties=species:S:1:pos:R:3 gdb_96915=T pbc="F F F"
C       -0.11290000       1.47760000      -0.44510000
N       -0.07010000       0.02190000      -0.46400000
C       -0.99820000      -0.61980000       0.07310000
C       -1.31840000      -2.08430000       0.26330000
C       -2.57520000      -1.54890000       0.98480000
C       -3.99120000      -1.96740000       0.54940000
C       -4.09040000      -2.79600000       1.86230000
C       -2.90800000      -1.95990000       2.43060000
O       -2.14110000      -0.18010000       0.72940000
H        0.78830000       1.85610000       0.05000000
H       -0.08980000       1.85010000      -1.47530000
H       -0.99240000       1.89460000       0.05960000
H       -1.49880000      -2.63860000      -0.66000000
H       -0.60860000      -2.63240000       0.88610000
H       -4.66120000      -1.10340000       0.56400000
H       -4.09650000      -2.48430000      -0.40750000
H       -5.03510000      -2.75600000       2.40610000
H       -3.81830000      -3.84330000       1.70980000
H       -2.13150000      -2.47070000       3.00510000
H       -3.25990000      -1.09360000       2.99750000
