19
Properties=species:S:1:pos:R:3 gdb_51426=T pbc="F F F"
O        0.80240000       2.60820000       2.15150000
C        0.33040000       2.63690000       1.04470000
C        0.89100000       1.90470000      -0.15690000
C        1.20100000       2.88570000      -1.28970000
C        2.51220000       3.74740000      -1.17970000
C        3.27800000       2.50810000      -1.74610000
C        1.96240000       2.37380000      -2.54780000
O        1.97400000       3.53260000      -3.39490000
C        2.37460000       4.57190000      -2.46460000
H       -0.58170000       3.24170000       0.82690000
H        1.75780000       1.32730000       0.17090000
H        0.12130000       1.19920000      -0.50320000
H        0.29710000       3.45270000      -1.54120000
H        2.80770000       4.26400000      -0.26720000
H        4.18660000       2.68840000      -2.32480000
H        3.44330000       1.72140000      -1.01170000
H        1.67160000       1.49690000      -3.12510000
H        1.59920000       5.34470000      -2.41110000
H        3.31410000       5.02990000      -2.79460000
