16
Properties=species:S:1:pos:R:3 gdb_78412=T pbc="F F F"
C       -0.20240000       1.25120000      -0.02340000
N        0.08700000      -0.17200000       0.13370000
C        1.48690000      -0.52180000      -0.14400000
C        0.96540000      -0.48520000       1.26180000
C        1.04550000      -2.03210000       1.36160000
C        1.60640000      -2.06690000      -0.07080000
O        0.45210000      -2.82160000      -0.53590000
C       -0.12870000      -2.80210000       0.72130000
O       -1.15300000      -3.29940000       1.05130000
H        0.63070000       1.91150000       0.26920000
H       -0.44810000       1.44790000      -1.07070000
H       -1.07350000       1.50160000       0.58840000
H        2.13430000       0.16540000      -0.67430000
H        1.14230000       0.22830000       2.05610000
H        1.54790000      -2.47200000       2.21950000
H        2.55100000      -2.52480000      -0.35620000
