12
Properties=species:S:1:pos:R:3 gdb_26624=T pbc="F F F"
O        0.02460000       1.35290000       0.00760000
C       -0.01130000       0.01390000       0.00090000
C       -1.19550000      -0.66630000       0.00350000
O       -2.40560000      -0.06570000       0.01270000
C       -1.17870000      -2.10340000      -0.00380000
O       -2.15980000      -2.80820000      -0.00290000
O        0.09200000      -2.68940000      -0.01360000
C        1.18430000      -1.91550000      -0.01520000
N        1.19830000      -0.63570000      -0.00870000
H        0.95730000       1.60760000       0.00410000
H       -3.05420000      -0.78800000       0.01250000
H        2.09820000      -2.49830000      -0.02300000
