19
Properties=species:S:1:pos:R:3 gdb_40864=T pbc="F F F"
C        0.01090000       1.56830000      -0.05700000
C        1.55840000       1.54010000       0.08890000
C        1.44480000       0.08360000       0.58670000
C        0.00260000       0.01400000       0.02160000
C        2.43120000      -1.05810000       0.38860000
C        3.34120000      -1.00090000       1.62830000
O        2.96120000       0.13760000       2.40550000
C        1.58650000      -0.23180000       2.10100000
C        2.02920000      -1.69390000       1.72290000
H       -0.47720000       2.02600000       0.80780000
H       -0.40030000       2.02010000      -0.96210000
H        2.06400000       1.60180000      -0.88000000
H        2.03070000       2.24950000       0.77240000
H       -0.76070000      -0.46430000       0.64310000
H       -0.02530000      -0.44550000      -0.97100000
H        2.71950000      -1.55230000      -0.53130000
H        4.36330000      -1.35280000       1.66940000
H        0.86700000       0.09890000       2.84860000
H        1.71670000      -2.68820000       2.00790000
