19
Properties=species:S:1:pos:R:3 gdb_83911=T pbc="F F F"
O       -0.39840000       1.48650000       0.01410000
C       -0.19740000       0.10350000       0.03830000
C       -0.47640000      -0.74260000       1.25180000
C       -1.26040000      -0.14950000       2.41240000
C       -2.50570000       0.52910000       1.79130000
C       -2.75250000      -0.18800000       0.44460000
C       -1.41100000      -0.80310000       0.02700000
C       -1.42570000      -1.92090000      -0.86910000
C       -1.45330000      -2.86090000      -1.62030000
H        0.30070000       1.89680000       0.53430000
H        0.62250000      -0.23920000      -0.59230000
H        0.20410000      -1.56370000       1.45020000
H       -1.55260000      -0.96450000       3.08410000
H       -0.66730000       0.55300000       3.00930000
H       -3.37500000       0.46490000       2.45140000
H       -2.30140000       1.58470000       1.61180000
H       -3.47290000      -1.00450000       0.55660000
H       -3.14500000       0.49050000      -0.31790000
H       -1.47600000      -3.68820000      -2.28490000
