19
Properties=species:S:1:pos:R:3 gdb_72670=T pbc="F F F"
C       -0.20410000       1.54280000       0.00170000
C        0.01290000       0.05040000       0.01620000
C       -1.21590000      -0.87940000       0.16250000
N       -0.47720000      -1.75160000       1.11840000
C        0.66410000      -0.78470000       1.19360000
C        1.76810000      -1.19590000       0.18900000
N        1.08510000      -0.43180000      -0.89330000
C        1.00100000      -0.26920000       2.49110000
C        1.26820000       0.16150000       3.58310000
H        0.75120000       2.06990000       0.06810000
H       -0.69010000       1.84630000      -0.93360000
H       -0.84000000       1.85900000       0.83470000
H       -2.08140000      -0.36490000       0.59930000
H       -1.54410000      -1.39830000      -0.74660000
H       -0.94750000      -1.85700000       2.00980000
H        2.76140000      -0.78970000       0.40750000
H        1.83140000      -2.27880000       0.05030000
H        0.74700000      -1.00820000      -1.65680000
H        1.51230000       0.54250000       4.54390000
