16
Properties=species:S:1:pos:R:3 gdb_68146=T pbc="F F F"
O       -0.06200000       1.39670000      -0.04270000
C       -0.01300000       0.01590000       0.02090000
C        0.33910000      -0.80470000       1.31320000
C       -0.37980000      -1.89990000       0.48090000
C       -1.34010000      -0.78790000      -0.02810000
O        0.51030000      -2.11540000      -0.63350000
C        0.81260000      -0.76000000      -1.02530000
C       -0.84160000      -3.14930000       1.04450000
N       -1.23310000      -4.12350000       1.52610000
H        0.83650000       1.74500000      -0.01800000
H        1.38610000      -0.99300000       1.55850000
H       -0.23190000      -0.47800000       2.18220000
H       -2.05650000      -0.46200000       0.72570000
H       -1.81580000      -0.95660000      -0.99540000
H        0.48090000      -0.57310000      -2.05220000
H        1.89170000      -0.57770000      -0.95040000
