17
Properties=species:S:1:pos:R:3 gdb_8231=T pbc="F F F"
N        0.19360000       1.25790000      -0.09860000
C        0.15360000      -0.09590000       0.09110000
O        1.06290000      -0.76750000       0.51950000
O       -1.07400000      -0.57000000      -0.24230000
C       -1.26850000      -1.96930000      -0.03520000
C       -1.70490000      -2.44820000       1.36740000
C       -2.71480000      -3.39490000       0.65800000
C       -2.58720000      -2.50890000      -0.61490000
H        1.10650000       1.67880000      -0.08730000
H       -0.51750000       1.68730000      -0.66580000
H       -0.38760000      -2.50830000      -0.38950000
H       -0.93960000      -2.87950000       2.01390000
H       -2.21820000      -1.64270000       1.90060000
H       -2.30020000      -4.39440000       0.50370000
H       -3.70740000      -3.49470000       1.10020000
H       -3.34410000      -1.71970000      -0.62900000
H       -2.55690000      -2.99350000      -1.59310000
