18
Properties=species:S:1:pos:R:3 gdb_126860=T pbc="F F F"
C       -0.06790000       1.55180000       0.13100000
C        0.09570000       0.03370000       0.04470000
N        0.72690000      -0.52950000       1.22360000
N        2.04700000      -0.84200000       1.26380000
N        2.33550000      -1.28350000       2.41600000
N        1.19000000      -1.26200000       3.16420000
C        0.11210000      -0.77070000       2.44350000
N       -1.11430000      -0.56620000       2.71960000
C       -1.54270000      -0.91490000       4.06190000
H        0.90420000       2.04470000       0.22240000
H       -0.56100000       1.92440000      -0.77180000
H       -0.68290000       1.81470000       0.99490000
H       -0.88110000      -0.44940000      -0.05130000
H        0.71530000      -0.25600000      -0.80700000
H        1.21420000      -1.56320000       4.12140000
H       -1.02710000      -0.32870000       4.84150000
H       -2.61210000      -0.71360000       4.16370000
H       -1.38930000      -1.98160000       4.29860000
