19
Properties=species:S:1:pos:R:3 gdb_15840=T pbc="F F F"
C        0.26440000       1.32490000      -0.08120000
O        0.11290000      -0.07430000       0.00840000
C        0.61190000      -0.62120000       1.21510000
C        0.50300000      -2.14080000       1.08560000
O        1.15710000      -2.56410000      -0.09920000
C        1.13510000      -2.84160000       2.27110000
C        1.66390000      -4.21770000       2.13970000
N        2.58710000      -3.07350000       2.29030000
H        1.32160000       1.62350000      -0.01380000
H       -0.13290000       1.63560000      -1.05040000
H       -0.29210000       1.84240000       0.71440000
H        1.66450000      -0.33140000       1.36270000
H        0.03240000      -0.26120000       2.07990000
H       -0.56790000      -2.40180000       1.04190000
H        0.93540000      -1.90380000      -0.76770000
H        0.72130000      -2.53330000       3.23000000
H        1.62750000      -4.89370000       2.98930000
H        1.59410000      -4.68890000       1.16470000
H        2.94130000      -2.84540000       1.36230000
