16
Properties=species:S:1:pos:R:3 gdb_49083=T pbc="F F F"
O        0.01570000      -0.05710000       0.17240000
C        0.07830000       1.10760000      -0.14230000
C        1.34620000       1.88730000      -0.14010000
N        2.57890000       1.17570000       0.03520000
C        3.57180000       2.27090000       0.18280000
C        2.69510000       3.48160000      -0.11570000
C        1.59690000       3.05660000      -1.14460000
O        0.59650000       3.90730000      -0.49940000
C        1.33150000       3.30130000       0.60910000
H       -0.81820000       1.69760000      -0.41750000
H        2.54590000       0.52760000       0.81230000
H        4.00530000       2.31920000       1.18920000
H        4.39450000       2.15970000      -0.53230000
H        3.13130000       4.47670000      -0.18550000
H        1.62840000       3.02410000      -2.23340000
H        1.03230000       3.55430000       1.62680000
