17
Properties=species:S:1:pos:R:3 gdb_36506=T pbc="F F F"
N       -0.07490000      -1.17680000      -0.02780000
C       -0.06180000      -0.02160000       0.00050000
C       -0.01070000       1.43940000       0.02930000
C        1.42610000       1.99400000      -0.01770000
C        2.14280000       1.62330000      -1.31560000
O        3.45640000       2.19070000      -1.35690000
C        3.57810000       3.43410000      -0.83190000
N        2.73600000       4.12030000      -0.18570000
C        1.43960000       3.52400000       0.11320000
H       -0.59360000       1.82540000      -0.81630000
H       -0.51140000       1.78760000       0.94000000
H        1.99420000       1.56480000       0.81600000
H        2.27500000       0.54450000      -1.42080000
H        1.57470000       1.98970000      -2.18250000
H        4.57410000       3.82250000      -1.03500000
H        0.68550000       3.96900000      -0.55230000
H        1.15780000       3.81980000       1.13060000
