16
Properties=species:S:1:pos:R:3 gdb_34752=T pbc="F F F"
N       -0.23510000      -1.18670000      -0.34190000
C       -0.12960000      -0.05110000      -0.15390000
C        0.00570000       1.38820000       0.05340000
C       -0.24980000       2.00360000       1.46320000
N        0.06720000       1.02690000       2.49400000
C        1.50270000       0.70610000       2.28790000
C        2.03010000       1.78520000       1.34060000
C        1.02860000       2.84810000       1.17290000
N        1.39600000       1.97140000      -0.00470000
H       -0.58320000       1.90330000      -0.71050000
H       -1.21140000       2.48750000       1.62540000
H       -0.06620000       1.44850000       3.40750000
H        2.05200000       0.72680000       3.23400000
H        1.61250000      -0.29620000       1.86350000
H        3.09150000       2.00210000       1.31050000
H        1.17650000       3.92060000       1.17880000
