18
Properties=species:S:1:pos:R:3 gdb_127078=T pbc="F F F"
C        0.37510000       1.04060000      -0.49350000
N        0.03200000      -0.12360000       0.32210000
C        0.41800000      -0.01760000       1.71600000
C       -1.20380000      -0.69710000       0.05770000
C       -1.81690000      -1.07420000      -1.13040000
N       -1.34990000      -0.89890000      -2.44750000
N       -3.02490000      -1.62110000      -0.84310000
N       -3.21810000      -1.62550000       0.44720000
N       -2.11540000      -1.06760000       0.99900000
H        1.45590000       1.20460000      -0.44640000
H        0.08550000       0.85540000      -1.52970000
H       -0.13250000       1.95630000      -0.14950000
H       -0.17990000       0.71920000       2.28290000
H        0.33080000      -0.99240000       2.20650000
H        1.46480000       0.29260000       1.77260000
H       -0.54520000      -1.48660000      -2.64480000
H       -2.08910000      -1.15480000      -3.09370000
H       -2.06070000      -0.97250000       1.99910000
