21
Properties=species:S:1:pos:R:3 gdb_118082=T pbc="F F F"
O       -0.07970000       1.47370000      -0.02360000
C        0.03360000       0.05750000      -0.03190000
C       -1.37560000      -0.52050000      -0.02920000
C       -1.39160000      -2.04730000       0.03260000
O       -0.77310000      -2.54570000       1.22010000
C       -2.81060000      -2.61350000      -0.10740000
O       -3.34360000      -2.16810000      -1.34090000
C       -2.83090000      -4.13890000      -0.05650000
O       -4.18360000      -4.51950000      -0.30870000
H        0.80740000       1.84380000      -0.00180000
H        0.57380000      -0.29440000      -0.92640000
H        0.58550000      -0.30800000       0.84620000
H       -1.92300000      -0.11480000       0.83400000
H       -1.91190000      -0.19250000      -0.92380000
H       -0.78770000      -2.45210000      -0.78960000
H       -1.20970000      -2.12710000       1.97110000
H       -3.42350000      -2.23790000       0.73400000
H       -4.10720000      -2.73480000      -1.51020000
H       -2.15930000      -4.53470000      -0.83280000
H       -2.48300000      -4.49400000       0.92050000
H       -4.20920000      -5.46300000      -0.48820000
