23
Properties=species:S:1:pos:R:3 gdb_81793=T pbc="F F F"
C       -0.07530000       1.53400000      -0.01480000
C        0.01050000       0.01230000      -0.01530000
C        1.12800000      -0.55810000      -0.90650000
C        1.24840000      -2.04730000      -0.72290000
C        1.85760000      -1.13560000       0.31240000
C        3.31800000      -1.14540000       0.66240000
C        0.73750000      -0.61430000       1.20340000
C        0.89950000       0.00680000       2.55810000
C        0.13720000      -1.29170000       2.40190000
H        0.90370000       1.98410000       0.18120000
H       -0.42770000       1.90200000      -0.98490000
H       -0.77150000       1.89720000       0.74880000
H       -0.98050000      -0.41520000      -0.21760000
H        1.54690000      -0.04890000      -1.76790000
H        0.36970000      -2.64430000      -0.48730000
H        1.95850000      -2.54080000      -1.38030000
H        3.92810000      -1.37760000      -0.21670000
H        3.64580000      -0.17440000       1.05060000
H        3.54530000      -1.90160000       1.42460000
H        1.87790000      -0.03200000       3.02700000
H        0.33850000       0.90710000       2.78770000
H       -0.94180000      -1.26390000       2.51920000
H        0.60000000      -2.20430000       2.76520000
