21
Properties=species:S:1:pos:R:3 gdb_77738=T pbc="F F F"
C        0.24280000       1.53050000      -0.28890000
C        0.03500000       0.04870000      -0.03240000
C        0.86270000      -1.00720000      -0.78270000
C        2.11230000      -0.67230000      -1.16340000
C        3.09860000      -1.09800000      -0.07880000
C        2.10040000      -1.37420000       1.06310000
C        0.87660000      -1.94170000       0.43940000
C        0.67120000      -0.68170000       1.22680000
C        0.08350000      -0.52790000       2.60810000
H        1.30310000       1.79810000      -0.25160000
H       -0.14500000       1.82060000      -1.27160000
H       -0.28870000       2.12620000       0.46140000
H       -1.03980000      -0.17710000       0.01420000
H        2.32360000       0.20320000      -1.77020000
H        3.71820000      -1.98800000      -0.26530000
H        3.78930000      -0.26560000       0.10640000
H        2.46800000      -1.77310000       2.00750000
H        0.42480000      -2.92070000       0.54140000
H        0.43800000      -1.31320000       3.28350000
H        0.34860000       0.43770000       3.05390000
H       -1.01100000      -0.58870000       2.57420000
