16
Properties=species:S:1:pos:R:3 gdb_19449=T pbc="F F F"
C       -0.09380000      -1.21890000      -0.11640000
C       -0.04040000      -0.01880000      -0.04190000
C        0.00440000       1.42790000       0.02830000
C        0.00600000       2.08110000       1.47740000
C        1.52580000       1.70960000       1.52940000
C        1.44120000       2.10760000       0.01780000
C        1.02750000       3.57840000       0.13610000
C        0.09060000       3.56110000       1.08900000
H       -0.13880000      -2.27780000      -0.17980000
H       -0.71210000       1.87100000      -0.66820000
H       -0.70450000       1.76700000       2.24030000
H        2.16490000       2.32170000       2.16880000
H        1.70620000       0.64380000       1.68730000
H        2.19750000       1.82050000      -0.71110000
H        1.41730000       4.40040000      -0.44700000
H       -0.50060000       4.36500000       1.50350000
