22
Properties=species:S:1:pos:R:3 gdb_9432=T pbc="F F F"
C       -0.12190000       1.36040000       0.04760000
O       -0.07160000      -0.04300000      -0.01350000
C        0.68840000      -0.51890000      -1.10470000
C        0.69050000      -2.04200000      -1.05570000
C        1.38160000      -2.70970000      -2.25520000
C        2.88250000      -2.39680000      -2.33780000
C        1.14670000      -4.22100000      -2.20880000
O        1.66420000      -4.79620000      -3.40050000
H        0.88070000       1.80320000       0.16410000
H       -0.58180000       1.79490000      -0.85490000
H       -0.72840000       1.63050000       0.91580000
H        0.25250000      -0.16760000      -2.05720000
H        1.71370000      -0.11690000      -1.05400000
H        1.16940000      -2.36130000      -0.12090000
H       -0.35450000      -2.37040000      -0.99920000
H        0.90290000      -2.35050000      -3.17750000
H        3.38750000      -2.67020000      -1.40280000
H        3.34150000      -2.96620000      -3.14880000
H        3.06900000      -1.33440000      -2.51870000
H        1.64160000      -4.64210000      -1.31740000
H        0.06790000      -4.42240000      -2.11170000
H        1.57960000      -5.75140000      -3.33530000
