18
Properties=species:S:1:pos:R:3 gdb_19369=T pbc="F F F"
O        0.15800000       1.36970000       0.11640000
C        0.03160000      -0.03290000      -0.09250000
C       -1.38970000      -0.49970000      -0.04870000
C       -2.07010000      -0.96490000       1.21800000
C       -1.93480000      -1.91530000       0.05690000
C       -2.90810000      -1.63180000      -1.12140000
C       -3.82990000      -0.46550000      -0.89390000
C       -2.38240000      -0.20840000      -1.21400000
H       -0.30420000       1.57600000       0.93580000
H        0.46600000      -0.21490000      -1.08260000
H        0.62840000      -0.60570000       0.63640000
H       -1.38390000      -1.17560000       2.03460000
H       -3.02650000      -0.58020000       1.55410000
H       -1.37330000      -2.83740000       0.14090000
H       -3.06690000      -2.34250000      -1.92200000
H       -4.50130000      -0.26970000      -1.72520000
H       -4.27350000      -0.24180000       0.07020000
H       -2.07590000       0.34540000      -2.09210000
