18
Properties=species:S:1:pos:R:3 gdb_90516=T pbc="F F F"
O        0.24120000       1.35950000       0.17880000
C        0.07970000      -0.03070000       0.01630000
C        0.28350000      -0.88660000       1.30910000
C       -1.20120000      -1.29700000       1.24550000
C       -1.39810000      -0.49120000      -0.02410000
N       -1.56310000      -1.92730000      -0.00270000
C       -0.66870000      -2.83630000      -0.72730000
C       -0.68290000      -4.16740000      -0.12940000
C       -0.67850000      -5.25850000       0.37280000
H       -0.32460000       1.64380000       0.90590000
H        0.69510000      -0.29170000      -0.84930000
H        1.01970000      -1.69590000       1.29050000
H        0.50670000      -0.23410000       2.15730000
H       -1.86200000      -1.43750000       2.09410000
H       -2.22550000       0.12860000      -0.35800000
H       -1.03510000      -2.88940000      -1.75960000
H        0.37360000      -2.48850000      -0.78560000
H       -0.68000000      -6.22620000       0.80990000
