23
Properties=species:S:1:pos:R:3 gdb_120889=T pbc="F F F"
C       -0.13420000       1.47000000      -0.44650000
C       -0.09280000      -0.02290000      -0.11110000
C       -1.48260000      -0.62440000       0.12500000
C       -1.43950000      -2.11430000       0.41130000
C       -2.77230000      -2.89890000       0.38210000
C       -2.11860000      -3.66810000      -0.75870000
C       -2.07890000      -5.13630000      -1.02680000
C       -2.68360000      -4.17270000      -2.04330000
O       -0.92790000      -2.88070000      -0.71700000
H        0.87150000       1.86930000      -0.61080000
H       -0.71780000       1.65540000      -1.35510000
H       -0.59350000       2.04800000       0.36350000
H        0.39090000      -0.57620000      -0.92400000
H        0.52660000      -0.18280000       0.78160000
H       -1.97340000      -0.12330000       0.97180000
H       -2.11620000      -0.45350000      -0.75540000
H       -0.82980000      -2.31360000       1.30340000
H       -3.00300000      -3.48030000       1.27680000
H       -3.64260000      -2.30030000       0.10120000
H       -1.11270000      -5.56760000      -1.26610000
H       -2.74260000      -5.78740000      -0.46650000
H       -3.76070000      -4.16420000      -2.17820000
H       -2.11070000      -3.97720000      -2.94360000
