18
Properties=species:S:1:pos:R:3 gdb_128794=T pbc="F F F"
C        0.00600000       1.39060000      -0.02010000
O        0.01380000      -0.01790000      -0.01660000
C        0.67650000      -0.55930000       1.10220000
C        0.62980000      -2.04860000       1.01280000
C        0.06310000      -2.81460000       0.04760000
O        0.22930000      -4.11780000       0.32020000
N        0.93390000      -4.23950000       1.51280000
C        1.16950000      -3.01380000       1.92030000
C        1.91890000      -2.77300000       3.19120000
H        1.02660000       1.80380000      -0.04340000
H       -0.52590000       1.71050000      -0.91880000
H       -0.51000000       1.79750000       0.86360000
H        1.72330000      -0.20600000       1.14030000
H        0.20200000      -0.21220000       2.03840000
H       -0.47170000      -2.57440000      -0.85650000
H        2.83410000      -2.19970000       3.00690000
H        1.31370000      -2.20210000       3.90390000
H        2.19120000      -3.72510000       3.65010000
