19
Properties=species:S:1:pos:R:3 gdb_11970=T pbc="F F F"
C       -0.12830000       1.52870000       0.01130000
C        0.01390000       0.01050000       0.00840000
O       -1.24330000      -0.62330000      -0.14330000
C        1.18240000      -0.51600000      -0.88840000
C        2.05170000      -0.72100000       0.38990000
C        0.77680000      -0.55810000       1.22040000
C        0.51840000      -0.32300000       2.65490000
N        0.24480000      -1.63900000       2.04120000
H        0.83420000       2.01720000       0.18970000
H       -0.50330000       1.88470000      -0.95730000
H       -0.82560000       1.84990000       0.79160000
H       -1.76190000      -0.13350000      -0.78940000
H        0.90270000      -1.46570000      -1.34890000
H        1.56360000       0.16340000      -1.65520000
H        2.55260000      -1.68490000       0.49330000
H        2.77940000       0.08020000       0.54900000
H        1.34110000      -0.31170000       3.36560000
H       -0.32240000       0.31190000       2.92710000
H       -0.75110000      -1.72860000       1.84570000
