15
Properties=species:S:1:pos:R:3 gdb_43378=T pbc="F F F"
O       -0.03760000      -0.06850000      -0.30290000
C       -0.06720000       1.13180000      -0.13160000
C       -1.23430000       2.05010000      -0.02460000
C       -0.80470000       3.29610000       0.18000000
C        0.69970000       3.33450000       0.22560000
N        1.04900000       1.94900000       0.00370000
C        2.38350000       1.41250000       0.01530000
C        3.07620000       1.63550000       1.29510000
N        3.61280000       1.84740000       2.29600000
H       -2.25020000       1.69220000      -0.10520000
H       -1.40480000       4.18790000       0.30230000
H        1.11450000       3.99380000      -0.55150000
H        1.07120000       3.70030000       1.19380000
H        2.28210000       0.33680000      -0.16780000
H        3.00140000       1.83570000      -0.78770000
