21
Properties=species:S:1:pos:R:3 gdb_83533=T pbc="F F F"
C       -0.15060000       1.60740000      -0.04650000
C        0.01190000       0.09460000      -0.02390000
O       -1.27910000      -0.49130000      -0.26820000
C        1.16380000      -0.61440000      -0.81960000
C        2.42470000       0.05820000      -0.24990000
C        2.04750000       0.04090000       1.27900000
C        0.67170000      -0.64040000       1.18610000
C        1.00640000      -1.81050000       0.19040000
O        0.04210000      -2.78800000      -0.05650000
H        0.77180000       2.14490000       0.17810000
H       -0.48730000       1.93810000      -1.03770000
H       -0.91160000       1.90810000       0.68020000
H       -1.56650000      -0.20910000      -1.14390000
H        1.09990000      -0.76320000      -1.89960000
H        3.32400000      -0.52630000      -0.46290000
H        2.59040000       1.06710000      -0.63590000
H        2.74830000      -0.55080000       1.87390000
H        2.00620000       1.04050000       1.71860000
H        0.11200000      -0.81260000       2.10620000
H        1.93610000      -2.34560000       0.40890000
H       -0.78880000      -2.31130000      -0.19540000
