18
Properties=species:S:1:pos:R:3 gdb_34660=T pbc="F F F"
C        0.04210000      -1.21320000      -0.19220000
C       -0.02350000      -0.01920000      -0.06560000
C       -0.06750000       1.40900000       0.08560000
N       -1.17990000       2.01370000       0.07620000
C       -1.27160000       3.46670000       0.08310000
C       -0.61680000       4.19370000       1.26700000
C        0.91180000       4.17470000       1.22210000
C        1.49870000       2.77200000       1.30180000
O        1.19520000       1.94270000       0.17030000
H        0.08710000      -2.26830000      -0.30600000
H       -0.83660000       3.85110000      -0.85260000
H       -2.33690000       3.71490000       0.06040000
H       -0.96880000       5.23180000       1.26200000
H       -0.97290000       3.74460000       2.20310000
H        1.26510000       4.65370000       0.30010000
H        1.32090000       4.75460000       2.05890000
H        2.59070000       2.81290000       1.32270000
H        1.15930000       2.26510000       2.21530000
