16
Properties=species:S:1:pos:R:3 gdb_50714=T pbc="F F F"
O       -0.88950000       1.08850000      -0.04420000
C        0.25170000       0.73880000       0.10090000
C        1.43950000       1.68930000       0.02920000
C        1.18910000       2.95390000       0.86000000
N        2.21190000       3.97730000       0.85300000
C        3.45540000       3.78160000       0.87780000
O        4.20920000       2.64270000       0.83140000
C        3.78210000       1.51730000       0.07720000
O        2.57400000       0.96240000       0.47220000
H        0.53680000      -0.31660000       0.30190000
H        1.57370000       1.97690000      -1.02860000
H        0.24990000       3.39120000       0.50940000
H        1.02460000       2.65140000       1.90370000
H        4.12260000       4.63390000       1.00620000
H        3.73960000       1.81030000      -0.98450000
H        4.55440000       0.76470000       0.24010000
