15
Properties=species:S:1:pos:R:3 gdb_49215=T pbc="F F F"
O       -0.89100000       1.28840000       0.12570000
C        0.23110000       0.84260000       0.12190000
C        1.44840000       1.71430000       0.08360000
N        2.58730000       1.12570000       0.05950000
C        3.76150000       1.97830000       0.11360000
C        3.60390000       3.42820000      -0.33910000
O        4.54700000       4.11420000      -0.64320000
C        2.18290000       3.98990000      -0.40450000
N        1.19770000       3.05610000       0.10640000
H        0.46310000      -0.23780000       0.14780000
H        4.11650000       2.02080000       1.15690000
H        4.58320000       1.53150000      -0.45530000
H        2.16130000       4.92850000       0.15990000
H        2.00070000       4.24680000      -1.45910000
H        0.21770000       3.29480000       0.02910000
