21
Properties=species:S:1:pos:R:3 gdb_96187=T pbc="F F F"
O       -0.00670000       1.42590000       0.03860000
C        0.04770000       0.00910000       0.03570000
C        0.87610000      -0.55770000       1.19290000
C        0.79940000      -2.08920000       1.19800000
C       -0.62670000      -2.54580000       1.53420000
C       -1.70030000      -1.94500000       0.60110000
C       -2.82540000      -1.17140000       1.32400000
O       -2.22040000       0.09940000       0.99320000
C       -1.37340000      -0.54710000       0.00490000
H       -0.66640000       1.66560000       0.70240000
H        0.53890000      -0.27180000      -0.90580000
H        1.90680000      -0.20330000       1.09540000
H        0.48820000      -0.16470000       2.14200000
H        1.10300000      -2.47810000       0.21580000
H        1.50080000      -2.50960000       1.92640000
H       -0.69490000      -3.63850000       1.51580000
H       -0.83830000      -2.24420000       2.56770000
H       -2.03590000      -2.67750000      -0.13560000
H       -3.81730000      -1.26980000       0.86250000
H       -2.91370000      -1.31640000       2.40640000
H       -1.80430000      -0.40150000      -0.99570000
