16
Properties=species:S:1:pos:R:3 gdb_31989=T pbc="F F F"
C       -0.10640000       1.38330000       0.12650000
O       -0.20010000       0.14040000      -0.58430000
C       -1.24800000      -0.61950000      -0.27440000
C       -1.39550000      -1.88440000       0.16720000
N       -2.76120000      -2.20210000       0.21440000
C       -3.33580000      -1.11770000      -0.18510000
O       -4.62510000      -0.84270000      -0.31790000
C       -5.49990000      -1.91990000       0.03530000
O       -2.51600000      -0.09710000      -0.51250000
H        0.81320000       1.85970000      -0.21530000
H       -0.96210000       2.02670000      -0.09940000
H       -0.05510000       1.20400000       1.20650000
H       -0.63070000      -2.59050000       0.44360000
H       -5.35310000      -2.20630000       1.08040000
H       -6.50960000      -1.54140000      -0.12160000
H       -5.31180000      -2.79020000      -0.59950000
