17
Properties=species:S:1:pos:R:3 gdb_94033=T pbc="F F F"
C       -0.41320000       1.37310000      -0.02540000
C       -0.00840000      -0.06830000      -0.32590000
C        1.42980000      -0.21520000      -0.90110000
O        2.07380000      -1.15890000      -0.01160000
C        1.16680000      -1.41130000       0.96290000
C        1.63730000      -2.34970000       2.04090000
C        2.83270000      -1.86500000       2.73250000
N        3.77110000      -1.48920000       3.29030000
N        0.01540000      -0.88730000       0.90410000
H        0.29670000       1.83610000       0.66750000
H       -0.43740000       1.96810000      -0.94440000
H       -1.40530000       1.40240000       0.43190000
H       -0.74560000      -0.50860000      -1.00820000
H        1.46540000      -0.62380000      -1.91330000
H        1.99690000       0.72060000      -0.87110000
H        0.82280000      -2.48220000       2.75610000
H        1.86520000      -3.32600000       1.59680000
