18
Properties=species:S:1:pos:R:3 gdb_108957=T pbc="F F F"
C       -0.03980000       1.40450000       0.11090000
O        0.01440000      -0.02550000       0.12280000
C        0.71360000      -0.55800000       1.12440000
N        1.32690000       0.07850000       2.05910000
C        1.82370000      -0.94290000       2.95170000
C        0.79860000      -1.80860000       3.66930000
N       -0.57070000      -1.40330000       3.78990000
C        1.43430000      -2.30430000       2.37100000
N        0.80360000      -1.93520000       1.13230000
H        0.96250000       1.82550000      -0.00160000
H       -0.66490000       1.66930000      -0.74230000
H       -0.47480000       1.78070000       1.04080000
H        2.77550000      -0.74420000       3.42920000
H        1.20560000      -2.30830000       4.54690000
H       -0.68580000      -0.44820000       3.46620000
H       -1.19280000      -1.98720000       3.24120000
H        2.07030000      -3.18170000       2.35300000
H        0.07510000      -2.48830000       0.70850000
