14
Properties=species:S:1:pos:R:3 gdb_4649=T pbc="F F F"
N        0.11480000       1.40720000       0.12750000
C       -0.02000000       0.00680000       0.04350000
C       -1.10460000      -0.83540000       0.03070000
C       -0.60500000      -2.18230000       0.00590000
C        0.77560000      -2.09970000      -0.00490000
N        1.11370000      -0.77320000       0.02340000
C       -1.37210000      -3.36970000      -0.01900000
C       -2.04020000      -4.37260000      -0.04010000
H        0.32140000       1.83030000      -0.77330000
H       -0.73980000       1.82650000       0.47300000
H       -2.14290000      -0.54390000       0.02240000
H        1.52100000      -2.87650000      -0.03340000
H        2.04460000      -0.40270000       0.10900000
H       -2.62450000      -5.25830000      -0.05830000
