18
Properties=species:S:1:pos:R:3 gdb_95129=T pbc="F F F"
O        0.29040000       1.40650000      -0.05740000
C        0.12030000       0.00300000      -0.06840000
C        0.76170000      -0.71950000       1.14840000
C       -0.09260000      -1.97750000       1.40830000
C       -1.47380000      -1.60630000       0.89560000
N       -1.93860000      -0.28540000       1.30860000
C       -1.33590000      -0.43360000      -0.03660000
C       -2.23490000      -0.33410000      -1.20740000
O       -3.44220000      -0.37050000      -1.12290000
H       -0.19420000       1.73380000       0.71060000
H        0.57510000      -0.33570000      -1.00750000
H        1.81670000      -0.94580000       0.98130000
H        0.70340000      -0.04350000       2.00560000
H        0.27550000      -2.83620000       0.83560000
H       -0.10540000      -2.26810000       2.46350000
H       -2.21550000      -2.37240000       0.69050000
H       -2.94830000      -0.23520000       1.16400000
H       -1.72660000      -0.23130000      -2.18930000
