25
Properties=species:S:1:pos:R:3 gdb_112557=T pbc="F F F"
C        0.26700000       1.30190000       0.56760000
C        0.22930000      -0.17670000       0.16820000
C        0.52070000      -0.39560000      -1.31760000
C        2.01390000      -0.28160000      -1.75220000
C        2.09210000      -1.82890000      -1.97330000
C        2.60390000      -2.27820000      -3.34030000
C        2.84300000      -2.56180000      -0.85880000
C        0.53090000      -1.87790000      -1.81130000
O       -0.06360000      -2.88490000      -1.02600000
H        1.24540000       1.74700000       0.35720000
H       -0.48270000       1.87640000       0.01250000
H        0.06490000       1.43170000       1.63540000
H        0.95060000      -0.72820000       0.78690000
H       -0.75760000      -0.59610000       0.40030000
H       -0.16000000       0.23980000      -1.89480000
H        2.15870000       0.28990000      -2.67260000
H        2.69610000       0.11730000      -0.99470000
H        3.67350000      -2.06610000      -3.45560000
H        2.46100000      -3.35640000      -3.47850000
H        2.07440000      -1.76520000      -4.15060000
H        2.54150000      -2.23090000       0.14120000
H        2.67780000      -3.64290000      -0.91860000
H        3.92030000      -2.38000000      -0.94140000
H        0.04870000      -1.96740000      -2.78950000
H        0.32400000      -2.85400000      -0.14580000
