18
Properties=species:S:1:pos:R:3 gdb_87082=T pbc="F F F"
C       -0.23500000       1.42820000      -0.05410000
N        0.04240000       0.00280000       0.03990000
C        1.39470000      -0.46000000      -0.19500000
C        0.80580000      -0.52580000       1.19080000
C        1.35880000       0.38340000       2.28060000
C        0.32020000      -1.79200000       1.68070000
C       -0.06570000      -2.84790000       2.13120000
C       -0.50280000      -4.03770000       2.62410000
C       -0.89010000      -5.09340000       3.06510000
H        0.61130000       2.08350000       0.20130000
H       -0.52910000       1.64870000      -1.08520000
H       -1.07750000       1.67790000       0.59780000
H        1.49920000      -1.36280000      -0.79030000
H        2.17890000       0.28360000      -0.34170000
H        1.79800000       1.29360000       1.86830000
H        0.57230000       0.66400000       2.98810000
H        2.13750000      -0.14320000       2.83930000
H       -1.23210000      -6.02230000       3.44860000
