21
Properties=species:S:1:pos:R:3 gdb_39243=T pbc="F F F"
C       -0.13580000       1.33180000       0.26270000
C        1.42100000       1.44060000      -0.00490000
C        2.40270000       1.00690000       1.10590000
C        2.59430000      -0.53540000       1.01810000
C        2.14580000      -1.00640000      -0.40430000
C        1.06870000      -2.13750000      -0.32530000
C       -0.17470000      -1.34400000       0.08910000
C       -0.01580000      -0.07600000      -0.28360000
C        1.32570000       0.18400000      -0.93040000
H       -0.50160000       1.43720000       1.28830000
H       -0.68240000       2.02960000      -0.38080000
H        1.71780000       2.38750000      -0.46220000
H        3.35970000       1.50720000       0.92130000
H        2.07970000       1.31890000       2.10470000
H        3.63320000      -0.81310000       1.21890000
H        1.98910000      -1.03420000       1.78010000
H        3.00360000      -1.28120000      -1.02610000
H        0.95440000      -2.65870000      -1.28630000
H        1.32560000      -2.90250000       0.41670000
H       -0.94360000      -1.74350000       0.74090000
H        1.34000000       0.36130000      -2.00910000
