13
Properties=species:S:1:pos:R:3 gdb_29499=T pbc="F F F"
N        0.04290000       1.43150000       0.17530000
C        0.05630000       0.04110000       0.03930000
C       -1.00800000      -0.83180000      -0.01330000
O       -0.61830000      -2.16820000      -0.04920000
C        0.72170000      -2.11180000      -0.03160000
C        1.18130000      -0.83580000       0.02500000
O        2.54520000      -0.89510000       0.03580000
C        2.78660000      -2.24920000      -0.01540000
N        1.73950000      -3.02270000      -0.05670000
H        0.77940000       1.88540000      -0.34940000
H       -0.84880000       1.84390000      -0.06590000
H       -2.07140000      -0.66470000      -0.01420000
H        3.82410000      -2.54120000      -0.01570000
