25
Properties=species:S:1:pos:R:3 gdb_101117=T pbc="F F F"
C        0.14120000       1.52900000      -0.10150000
C       -0.00580000       0.00510000      -0.15560000
C       -1.44810000      -0.51550000       0.02860000
C       -2.38880000      -0.03280000      -1.08430000
C       -1.43370000      -2.02140000       0.18090000
C       -1.42790000      -3.00370000      -0.96120000
C       -2.53920000      -3.07940000       0.05380000
C       -2.04370000      -3.79310000       1.31410000
C       -0.90010000      -2.73420000       1.43870000
H        1.19400000       1.82210000      -0.16460000
H       -0.38450000       2.02190000      -0.92510000
H       -0.25880000       1.93250000       0.83600000
H        0.38320000      -0.37170000      -1.11100000
H        0.62590000      -0.43920000       0.62370000
H       -1.82540000      -0.10370000       0.97830000
H       -2.00830000      -0.29960000      -2.07660000
H       -3.38650000      -0.46970000      -0.97550000
H       -2.50290000       1.05430000      -1.05950000
H       -1.71590000      -2.60630000      -1.92870000
H       -0.67690000      -3.79060000      -1.01270000
H       -3.57650000      -2.95920000      -0.23840000
H       -2.74740000      -3.73980000       2.14800000
H       -1.73860000      -4.83720000       1.18420000
H        0.12810000      -3.10780000       1.38390000
H       -0.99810000      -2.12420000       2.34110000
