18
Properties=species:S:1:pos:R:3 gdb_108694=T pbc="F F F"
O        0.10190000       1.29870000       0.71000000
C        0.02220000       0.12440000      -0.08320000
C       -1.38260000      -0.41850000      -0.16930000
C       -1.94490000      -1.26330000      -1.08180000
C       -3.38880000      -1.51780000      -0.67930000
C       -3.46230000      -0.90860000       0.74600000
N       -2.26680000      -0.05400000       0.80430000
C       -1.34070000      -1.78230000      -2.27390000
O       -1.89880000      -2.51960000      -3.07150000
H       -0.37120000       2.00020000       0.24970000
H        0.43570000       0.27390000      -1.08790000
H        0.66040000      -0.61130000       0.41980000
H       -4.07930000      -1.01400000      -1.36650000
H       -3.65060000      -2.57830000      -0.69430000
H       -4.36900000      -0.32340000       0.92030000
H       -3.40930000      -1.68900000       1.51740000
H       -1.91870000       0.33120000       1.66850000
H       -0.28420000      -1.46830000      -2.44590000
