17
Properties=species:S:1:pos:R:3 gdb_43997=T pbc="F F F"
N        0.00870000       1.17680000       0.50260000
C        0.01750000       0.01820000       0.01550000
C       -1.22660000      -0.87410000      -0.18040000
C       -0.69900000      -2.06030000      -0.94350000
C       -0.00320000      -1.90370000      -2.26910000
C        0.79530000      -1.86870000      -0.99330000
C        0.93600000      -3.21190000      -0.26960000
N       -0.53820000      -3.46200000      -0.46240000
O        1.15690000      -0.63270000      -0.44380000
H        0.94840000       1.57470000       0.52450000
H       -1.61300000      -1.16690000       0.80120000
H       -2.01290000      -0.30080000      -0.67670000
H        0.05790000      -2.76890000      -2.92090000
H       -0.10180000      -0.94480000      -2.76620000
H        1.58250000      -3.97460000      -0.71540000
H        1.22540000      -3.05380000       0.77420000
H       -1.01820000      -3.62480000       0.41620000
