18
Properties=species:S:1:pos:R:3 gdb_46289=T pbc="F F F"
O       -0.47520000       0.09290000       0.02130000
C       -0.23150000       1.27090000       0.02650000
N       -1.01750000       2.39490000       0.04910000
C        0.09030000       3.35530000       0.03750000
C        1.06070000       2.12700000       0.01100000
C        2.00760000       1.95970000       1.22550000
C        3.38100000       2.17510000       0.63690000
C        3.35800000       2.18560000      -0.69390000
C        1.96500000       1.97930000      -1.23810000
H       -2.01940000       2.51360000       0.06730000
H        0.12150000       3.99150000      -0.85320000
H        0.15260000       3.97730000       0.93670000
H        1.76700000       2.65660000       2.03700000
H        1.91690000       0.94860000       1.64640000
H        4.26920000       2.26310000       1.25240000
H        4.22440000       2.28360000      -1.33820000
H        1.85960000       0.97500000      -1.67170000
H        1.69680000       2.68900000      -2.02950000
