19
Properties=species:S:1:pos:R:3 gdb_86672=T pbc="F F F"
C       -0.94900000       1.16450000      -0.20770000
C       -0.04960000      -0.04690000      -0.10890000
O        1.14940000       0.07010000      -0.91890000
C        1.96360000      -0.49360000       0.11760000
C        3.23990000       0.27260000       0.34920000
O        4.02950000      -0.00960000       1.21630000
C        0.79500000      -0.34440000       1.16090000
C        0.96170000       0.78290000       2.16860000
O        0.37090000      -1.53380000       1.77620000
H       -0.42020000       2.08410000       0.05510000
H       -1.31880000       1.26720000      -1.23260000
H       -1.81430000       1.05090000       0.45350000
H       -0.60140000      -0.95750000      -0.37930000
H        2.19310000      -1.55560000      -0.04740000
H        3.38110000       1.14390000      -0.32920000
H        1.23110000       1.72530000       1.68320000
H        0.03130000       0.93020000       2.72440000
H        1.76290000       0.54370000       2.87660000
H        0.87280000      -1.65450000       2.58980000
