13
Properties=species:S:1:pos:R:3 gdb_15472=T pbc="F F F"
O        0.00960000       0.00220000      -0.09210000
C       -0.03760000       1.19130000       0.01360000
C       -1.25950000       2.09370000       0.16670000
C       -0.64300000       3.45450000       0.49520000
O        0.64550000       3.44690000      -0.14700000
C        1.19230000       2.15750000      -0.00820000
C        1.97520000       2.00790000       1.23200000
N        2.56290000       1.90260000       2.22140000
H       -1.79020000       2.11260000      -0.79160000
H       -1.93880000       1.69610000       0.92310000
H       -1.19150000       4.30560000       0.09090000
H       -0.52370000       3.59030000       1.57850000
H        1.83020000       1.93840000      -0.86930000
