15
Properties=species:S:1:pos:R:3 gdb_4883=T pbc="F F F"
C       -0.15440000       1.40740000       0.17090000
N        0.49450000       0.12560000      -0.12250000
C        0.78810000      -0.69900000       0.94560000
C        0.55650000      -1.98840000       1.23300000
N        1.19320000      -2.24450000       2.46500000
C        1.85350000      -1.11350000       2.88300000
N        2.57880000      -0.98510000       3.91450000
O        1.56060000      -0.13110000       1.94550000
H        0.46780000       1.96700000       0.87140000
H       -0.22960000       1.98240000      -0.75490000
H       -1.15850000       1.29930000       0.60780000
H        0.02700000      -0.38790000      -0.85730000
H       -0.03800000      -2.72570000       0.72420000
H        1.45950000      -3.14890000       2.81160000
H        2.95980000      -0.04490000       3.97090000
