23
Properties=species:S:1:pos:R:3 gdb_84114=T pbc="F F F"
C       -0.16850000       1.56220000       0.02960000
C        0.02650000       0.03710000       0.02080000
C        0.72850000      -0.44180000      -1.23410000
C        1.83330000      -1.18920000      -1.15280000
C        2.59660000      -1.70860000      -2.33470000
C        2.33290000      -1.52770000       0.24340000
C        1.11670000      -1.98240000       1.10660000
C        0.79840000      -0.46690000       1.25840000
C        2.32910000      -0.22430000       1.09700000
H        0.79240000       2.08680000       0.03480000
H       -0.72020000       1.89210000      -0.85700000
H       -0.73340000       1.87970000       0.91300000
H       -0.97780000      -0.41540000       0.04990000
H        0.30900000      -0.15550000      -2.19630000
H        2.14050000      -1.39910000      -3.27930000
H        3.63540000      -1.35270000      -2.32340000
H        2.64760000      -2.80550000      -2.32280000
H        3.23190000      -2.14770000       0.23040000
H        0.36990000      -2.62290000       0.62960000
H        1.43230000      -2.42310000       2.05660000
H        0.31980000      -0.13020000       2.18230000
H        2.85150000      -0.35910000       2.04830000
H        2.67030000       0.69550000       0.61580000
