17
Properties=species:S:1:pos:R:3 gdb_53592=T pbc="F F F"
C        0.71410000       0.21340000      -1.10350000
C        0.12510000      -0.73370000      -0.16890000
C       -0.32670000      -1.53500000       0.60900000
C       -0.89700000      -2.50730000       1.53980000
N       -1.61120000      -3.66600000       0.96740000
C       -2.10320000      -3.61370000      -0.39350000
C       -0.96950000      -4.52840000      -0.03080000
C        0.35820000      -4.28750000      -0.54480000
N        1.43790000      -4.17890000      -0.94590000
H        1.35420000      -0.30220000      -1.82730000
H       -0.05350000       0.76240000      -1.65950000
H        1.33240000       0.94820000      -0.57660000
H       -0.11590000      -2.90770000       2.19590000
H       -1.62410000      -2.00740000       2.19070000
H       -3.08830000      -4.03940000      -0.56220000
H       -1.84730000      -2.74570000      -0.99590000
H       -1.17280000      -5.58650000       0.11510000
