20
Properties=species:S:1:pos:R:3 gdb_69954=T pbc="F F F"
C        0.06280000       1.55470000       0.13420000
C       -0.00750000       0.05910000      -0.04930000
C       -0.96280000      -0.77560000       0.71870000
N        0.47500000      -0.80140000       1.06640000
C        1.25320000      -1.91460000       0.50220000
C        0.54920000      -3.27510000       0.39280000
O        0.17380000      -3.00420000      -0.97970000
C        1.08750000      -1.87420000      -1.03680000
C        0.45510000      -0.52840000      -1.38630000
H        1.07350000       1.92940000      -0.06430000
H       -0.62410000       2.06370000      -0.55170000
H       -0.20780000       1.83110000       1.15640000
H       -1.59010000      -0.32090000       1.48150000
H       -1.40300000      -1.62910000       0.21180000
H        2.25760000      -1.90110000       0.92840000
H        1.23000000      -4.13340000       0.46010000
H       -0.31680000      -3.44450000       1.04080000
H        1.96090000      -2.11880000      -1.65210000
H       -0.36040000      -0.64860000      -2.10610000
H        1.20670000       0.12570000      -1.84290000
