14
Properties=species:S:1:pos:R:3 gdb_28292=T pbc="F F F"
N        0.15000000       1.34140000       0.16680000
C       -0.05880000      -0.01830000       0.04990000
C       -1.16770000      -0.79580000      -0.00060000
N       -0.68810000      -2.11770000       0.01040000
C       -1.01790000      -3.46120000      -0.03620000
C        0.19880000      -4.10900000      -0.02380000
N        1.26950000      -3.22850000       0.02370000
C        0.66830000      -2.07440000       0.04340000
O        1.08850000      -0.77970000       0.07700000
H        0.96450000       1.65850000      -0.34500000
H       -0.66440000       1.89060000      -0.07010000
H       -2.20860000      -0.53230000      -0.03620000
H       -2.03420000      -3.81250000      -0.06740000
H        0.36750000      -5.17480000      -0.04380000
