18
Properties=species:S:1:pos:R:3 gdb_99727=T pbc="F F F"
C        0.13120000      -1.56610000       0.82390000
N        0.43190000      -0.32040000       0.12500000
C        0.76610000      -0.47720000      -1.27770000
C       -0.05050000       0.54130000      -2.12190000
N        0.27190000       0.56860000      -3.43220000
O       -0.93640000       1.20150000      -1.60690000
C        2.27660000      -0.34520000      -1.57330000
N        3.01030000       0.00060000      -0.50030000
O        2.72900000      -0.54740000      -2.69390000
H       -0.66370000      -2.16180000       0.34480000
H        1.02900000      -2.19130000       0.88130000
H       -0.18110000      -1.33900000       1.84690000
H       -0.35720000       0.32190000       0.16370000
H        0.48910000      -1.47050000      -1.66480000
H        1.13850000       0.12790000      -3.72110000
H       -0.16680000       1.26640000      -4.01100000
H        2.51090000       0.20250000       0.35490000
H        3.99920000       0.15540000      -0.59910000
