15
Properties=species:S:1:pos:R:3 gdb_16855=T pbc="F F F"
N       -0.05390000       1.04350000       0.87810000
C        0.02900000       0.09390000       0.04490000
C       -1.20950000      -0.50980000      -0.58350000
C       -1.10210000      -2.02330000      -0.68380000
O       -0.88350000      -2.56160000      -1.98930000
C        0.21580000      -2.54110000      -1.07390000
C        1.26580000      -1.47390000      -1.31700000
O        1.23110000      -0.44230000      -0.31350000
H        0.88010000       1.32850000       1.18060000
H       -2.06900000      -0.18640000       0.00290000
H       -1.32940000      -0.11250000      -1.59870000
H       -1.75200000      -2.62120000      -0.04920000
H        0.55050000      -3.51940000      -0.73760000
H        2.27900000      -1.87590000      -1.26450000
H        1.11240000      -1.03790000      -2.31110000
