18
Properties=species:S:1:pos:R:3 gdb_61475=T pbc="F F F"
C       -1.55290000      -0.34350000       0.13910000
C       -0.08030000       0.10060000       0.06720000
C        0.72500000      -0.38080000       1.29370000
C        2.16420000       0.17130000       1.31660000
N        2.15020000       1.63540000       1.36700000
C        2.92130000      -0.44090000       2.42900000
N        3.50930000      -0.87680000       3.32400000
C        0.54710000      -0.37620000      -1.17060000
N        1.05670000      -0.76100000      -2.13450000
H       -2.01940000       0.06730000       1.03890000
H       -2.11020000       0.01100000      -0.73100000
H       -1.63300000      -1.43370000       0.17510000
H       -0.02820000       1.19460000       0.04590000
H        0.20180000      -0.05370000       2.19940000
H        0.75590000      -1.47430000       1.31680000
H        2.65870000      -0.12220000       0.38310000
H        1.87080000       1.94960000       2.29240000
H        3.08230000       2.00290000       1.20460000
