14
Properties=species:S:1:pos:R:3 gdb_9107=T pbc="F F F"
C       -0.25810000       1.60120000       0.08550000
N        0.04260000       0.18760000       0.13860000
C       -0.89370000      -0.61260000      -0.12780000
N       -0.78170000      -2.00380000      -0.12480000
C        0.32990000      -2.78960000       0.15790000
O        1.42460000      -2.38140000       0.45790000
C        0.01850000      -4.21220000       0.04830000
C       -0.20280000      -5.39150000      -0.03250000
H        0.40650000       2.08710000      -0.63770000
H       -1.30190000       1.82880000      -0.19000000
H       -0.04910000       2.05410000       1.06120000
H       -1.91490000      -0.30080000      -0.39560000
H       -1.62060000      -2.51210000      -0.35810000
H       -0.38120000      -6.43730000      -0.09940000
