19
Properties=species:S:1:pos:R:3 gdb_109195=T pbc="F F F"
O        0.01840000       1.41920000      -0.02280000
C       -0.00870000       0.00380000      -0.02490000
C       -1.42230000      -0.47830000      -0.02780000
C       -2.52760000       0.26690000      -0.02820000
C       -3.78190000      -0.56810000       0.02810000
C       -3.26030000      -1.99670000      -0.32340000
C       -1.74240000      -1.95620000       0.03130000
C       -3.99750000      -3.08440000       0.30150000
C       -4.60390000      -3.97850000       0.82980000
H        0.93730000       1.70070000      -0.03640000
H        0.51560000      -0.40730000      -0.90660000
H        0.51180000      -0.41090000       0.85760000
H       -2.53350000       1.34930000      -0.02320000
H       -4.22910000      -0.54970000       1.03090000
H       -4.56160000      -0.24070000      -0.66760000
H       -3.33390000      -2.10730000      -1.41220000
H       -1.14750000      -2.56430000      -0.65980000
H       -1.56220000      -2.35870000       1.03740000
H       -5.14170000      -4.76910000       1.29110000
