20
Properties=species:S:1:pos:R:3 gdb_3103=T pbc="F F F"
C        0.10190000       2.23660000       1.21280000
C       -0.68680000       0.94170000       1.40480000
N        0.21530000      -0.14240000       1.77840000
C       -0.23130000      -1.53780000       1.74420000
C       -1.63410000      -1.95590000       1.35520000
C        0.78510000      -1.03840000       0.76400000
C        0.51840000      -0.91440000      -0.72170000
H        0.80720000       2.14660000       0.38020000
H       -0.57100000       3.07250000       0.99630000
H        0.67580000       2.47080000       2.11360000
H       -1.40110000       1.06580000       2.22810000
H       -1.28490000       0.74420000       0.50220000
H        0.14940000      -2.11160000       2.59070000
H       -2.01560000      -1.43700000       0.47410000
H       -1.65780000      -3.03060000       1.14460000
H       -2.33320000      -1.76920000       2.17820000
H        1.82650000      -1.28510000       0.97520000
H       -0.53000000      -0.73670000      -0.96650000
H        1.10500000      -0.09680000      -1.15540000
H        0.82170000      -1.83750000      -1.22780000
