21
Properties=species:S:1:pos:R:3 gdb_73130=T pbc="F F F"
C        0.23630000       1.55200000      -0.04300000
C        0.02190000       0.05240000       0.02880000
O       -1.31090000      -0.26030000       0.54620000
C       -0.76540000      -1.01540000       1.64500000
C        0.68310000      -0.75470000       1.19000000
C        1.50840000      -1.90310000       0.57470000
C        1.24380000      -1.87140000      -0.93060000
C       -0.16110000      -2.07060000      -1.42760000
C        0.37440000      -0.67090000      -1.26670000
H        1.25970000       1.78170000      -0.35960000
H       -0.45350000       1.99960000      -0.76630000
H        0.05800000       2.01800000       0.93010000
H       -1.04110000      -0.57830000       2.61290000
H       -1.08680000      -2.06580000       1.63020000
H        1.26520000      -0.16270000       1.89850000
H        2.57530000      -1.73820000       0.75860000
H        1.25930000      -2.87220000       1.02370000
H        2.05550000      -2.16080000      -1.58960000
H       -0.28280000      -2.44040000      -2.43990000
H       -0.93770000      -2.39070000      -0.74260000
H        0.55330000      -0.07320000      -2.15390000
