20
Properties=species:S:1:pos:R:3 gdb_113678=T pbc="F F F"
C        0.84310000       1.65850000       0.07460000
C        0.73850000       0.15870000      -0.18990000
N        0.72970000      -0.56020000       1.08880000
C       -0.53620000      -0.81710000       1.73390000
C        0.26750000      -1.95300000       1.17290000
C       -0.28890000      -2.67340000      -0.01230000
O       -1.04520000      -2.22060000      -0.83990000
O        0.17700000      -3.93890000      -0.04470000
C       -0.30310000      -4.73930000      -1.13180000
H        1.73080000       1.88850000       0.67060000
H        0.90330000       2.20780000      -0.86980000
H       -0.03430000       2.02280000       0.61930000
H       -0.14270000      -0.06390000      -0.80340000
H        1.61910000      -0.18460000      -0.74550000
H       -0.57210000      -0.67630000       2.81110000
H       -1.44880000      -0.57500000       1.19170000
H        0.85930000      -2.57980000       1.83200000
H        0.15390000      -5.72030000      -1.00220000
H       -1.39290000      -4.81660000      -1.10190000
H       -0.00970000      -4.30320000      -2.09000000
