14
Properties=species:S:1:pos:R:3 gdb_28626=T pbc="F F F"
N       -0.02610000       1.33270000       0.00840000
C       -0.00230000      -0.01490000       0.00090000
N       -1.19610000      -0.64420000       0.00430000
C       -1.14100000      -1.96750000      -0.00340000
C        0.05530000      -2.68930000      -0.01430000
C        0.08390000      -4.15410000      -0.02250000
O        1.09120000      -4.82760000      -0.03190000
C        1.22720000      -1.91610000      -0.01680000
N        1.22050000      -0.59540000      -0.00940000
H        0.84000000       1.84080000       0.00620000
H       -0.90850000       1.81170000       0.01610000
H       -2.09670000      -2.49190000      -0.00080000
H       -0.92360000      -4.63010000      -0.01910000
H        2.19440000      -2.41320000      -0.02510000
