17
Properties=species:S:1:pos:R:3 gdb_36112=T pbc="F F F"
N       -0.22080000      -1.16570000       0.28680000
C       -0.12190000      -0.02380000       0.14320000
C        0.01670000       1.42420000      -0.03410000
C        1.45340000       1.87350000      -0.01910000
N        1.86950000       3.16700000      -0.60770000
C        2.49530000       1.89000000      -1.06130000
C        3.57690000       1.46390000      -0.02770000
C        3.66400000       2.41120000       1.13870000
C        2.50660000       1.45240000       1.05660000
H       -0.45570000       1.70420000      -0.98350000
H       -0.55050000       1.92520000       0.76180000
H        1.17870000       3.42370000      -1.31330000
H        2.45380000       1.59110000      -2.10070000
H        4.32080000       0.70740000      -0.23700000
H        4.41170000       2.13980000       1.87760000
H        3.51320000       3.47390000       1.00150000
H        2.30990000       0.68440000       1.79280000
