22
Properties=species:S:1:pos:R:3 gdb_60529=T pbc="F F F"
C       -0.06500000       1.54870000      -0.02360000
C        0.01170000       0.01830000       0.02340000
C        0.71230000      -0.46160000       1.29840000
O       -1.30660000      -0.53530000       0.09170000
C        0.70110000      -0.52630000      -1.26190000
O        1.99670000       0.02940000      -1.46470000
C        0.71720000      -2.05110000      -1.32320000
C        1.51210000      -2.74670000      -2.35880000
N        1.91320000      -2.81980000      -0.93790000
H        0.92860000       1.99890000      -0.08870000
H       -0.62890000       1.87870000      -0.90470000
H       -0.57040000       1.92720000       0.86910000
H        0.16100000      -0.10730000       2.17310000
H        0.75750000      -1.55220000       1.33440000
H        1.73230000      -0.06770000       1.37360000
H       -1.82860000      -0.14500000      -0.61830000
H        0.10710000      -0.16360000      -2.11350000
H        2.46670000       0.00870000      -0.62460000
H       -0.21460000      -2.49840000      -0.99120000
H        1.15650000      -3.67980000      -2.78630000
H        2.11620000      -2.13170000      -3.02000000
H        2.69150000      -2.17530000      -0.81090000
