21
Properties=species:S:1:pos:R:3 gdb_103128=T pbc="F F F"
C       -0.06570000      -0.43730000       0.99010000
C        0.21460000      -1.74460000       0.23800000
C        0.77430000      -1.52870000      -1.15610000
O        2.01510000      -0.87720000      -1.17550000
C        0.61970000      -2.51270000      -2.25760000
C       -0.06430000      -3.85680000      -2.12460000
C       -0.14820000      -1.17880000      -2.35120000
C       -1.61360000      -1.08790000      -2.21500000
O       -2.28890000      -0.23970000      -2.75280000
H        0.84780000       0.15180000       1.12640000
H       -0.79420000       0.18260000       0.45690000
H       -0.46520000      -0.64220000       1.98720000
H        0.94440000      -2.34240000       0.79760000
H       -0.70340000      -2.33660000       0.18840000
H        1.89010000       0.02000000      -0.84630000
H        1.47670000      -2.52310000      -2.92540000
H       -0.89690000      -3.84940000      -1.41820000
H       -0.45680000      -4.18540000      -3.09220000
H        0.65170000      -4.61100000      -1.78150000
H        0.26440000      -0.44490000      -3.03550000
H       -2.09230000      -1.85660000      -1.56840000
