12
Properties=species:S:1:pos:R:3 gdb_130564=T pbc="F F F"
O        0.04990000      -0.07190000       0.00290000
C       -0.03360000       1.13790000       0.00740000
C        1.19890000       1.96220000       0.00100000
N        2.16120000       2.60300000      -0.00390000
C       -1.27220000       1.89640000       0.01880000
C       -2.55410000       1.35540000       0.02640000
N       -3.39360000       2.39950000       0.03590000
N       -2.76910000       3.60450000       0.03520000
C       -1.48220000       3.30290000       0.02480000
H       -2.88630000       0.33000000       0.02550000
H       -4.40090000       2.37870000       0.04320000
H       -0.73870000       4.08620000       0.02180000
