23
Properties=species:S:1:pos:R:3 gdb_52705=T pbc="F F F"
C        0.05020000       1.47670000      -0.00410000
C        0.01970000       0.02040000      -0.01150000
C       -0.00300000      -1.18420000      -0.00630000
C       -0.04040000      -2.64710000      -0.02530000
C       -1.48770000      -3.15890000       0.12410000
C        0.65290000      -3.18660000      -1.29980000
C        0.90990000      -4.69970000      -1.28620000
C        1.62010000      -5.16800000      -2.55700000
O        1.62780000      -5.09750000      -0.11780000
H        1.07800000       1.85540000      -0.03720000
H       -0.48180000       1.89310000      -0.86700000
H       -0.42040000       1.88130000       0.89910000
H        0.53650000      -3.02260000       0.82960000
H       -2.09610000      -2.85700000      -0.73470000
H       -1.51320000      -4.24930000       0.20290000
H       -1.94860000      -2.74470000       1.02450000
H        0.05220000      -2.92530000      -2.18000000
H        1.61500000      -2.67060000      -1.42040000
H       -0.04480000      -5.23180000      -1.20420000
H        2.58360000      -4.65600000      -2.67470000
H        1.80800000      -6.24410000      -2.51160000
H        1.02090000      -4.95550000      -3.44830000
H        2.50150000      -4.69210000      -0.16180000
