19
Properties=species:S:1:pos:R:3 gdb_9885=T pbc="F F F"
C       -0.32990000       1.35000000      -0.49100000
C       -0.03680000      -0.05900000      -0.01380000
C       -1.16530000      -1.05670000      -0.21280000
N       -2.34990000      -0.72660000       0.56750000
C       -3.58160000      -0.53710000       0.02340000
O       -3.85590000      -0.64050000      -1.15350000
C        1.36760000      -0.58770000      -0.16110000
C        0.83680000      -0.23980000       1.20980000
H        0.51720000       2.01540000      -0.29900000
H       -0.53350000       1.36540000      -1.56770000
H       -1.20600000       1.76680000       0.01690000
H       -1.49090000      -1.08020000      -1.25630000
H       -0.81800000      -2.06480000       0.04920000
H       -2.24440000      -0.59440000       1.56130000
H       -4.33120000      -0.27160000       0.79600000
H        1.50300000      -1.63680000      -0.40320000
H        2.11060000       0.06700000      -0.60320000
H        1.22340000       0.64800000       1.69880000
H        0.61920000      -1.05870000       1.88900000
