20
Properties=species:S:1:pos:R:3 gdb_46532=T pbc="F F F"
N       -0.04150000       1.28150000      -0.03610000
C       -0.04900000       0.01930000      -0.05200000
C       -1.27550000      -0.86620000      -0.10140000
C       -0.70270000      -2.20110000      -0.59230000
C        0.72750000      -2.16430000      -0.03520000
C        0.96010000      -2.91800000       1.30420000
C        1.60760000      -4.07030000       0.48780000
C        1.77360000      -3.08210000      -0.70110000
O        1.06990000      -0.76850000      -0.02690000
H        0.91740000       1.63080000       0.01410000
H       -1.68880000      -0.95550000       0.90990000
H       -2.04900000      -0.43550000      -0.73730000
H       -1.26220000      -3.07610000      -0.25520000
H       -0.66920000      -2.22090000      -1.68720000
H        1.69760000      -2.38630000       1.91060000
H        0.08570000      -3.14340000       1.92040000
H        2.51670000      -4.51590000       0.89400000
H        0.89830000      -4.87110000       0.26420000
H        1.55410000      -3.43880000      -1.71070000
H        2.75550000      -2.60250000      -0.69700000
