18
Properties=species:S:1:pos:R:3 gdb_46397=T pbc="F F F"
O       -0.10940000       0.26160000       0.88370000
C       -0.01140000       1.28050000       0.27420000
O       -0.98100000       1.91250000      -0.45670000
C       -0.10980000       3.06500000      -0.70590000
C        1.04340000       2.36920000       0.04590000
C        1.62690000       3.01000000       1.31160000
C        2.81350000       2.24070000       1.86190000
C        2.90970000       1.92700000       3.31020000
N        2.67440000       0.85690000       2.33310000
H        0.02360000       3.22630000      -1.77680000
H       -0.51730000       3.95900000      -0.22800000
H        1.83980000       2.02640000      -0.62080000
H        1.94370000       4.03440000       1.07880000
H        0.83990000       3.09110000       2.07140000
H        3.73890000       2.40860000       1.31140000
H        3.87780000       1.89790000       3.80310000
H        2.08970000       2.24820000       3.94900000
H        1.69960000       0.56350000       2.31610000
