15
Properties=species:S:1:pos:R:3 gdb_33482=T pbc="F F F"
C        0.03440000      -1.22290000      -0.02670000
C        0.01480000      -0.02190000      -0.02910000
C        0.00920000       1.43290000       0.01750000
C       -0.17620000       2.13470000       1.42620000
N        1.12800000       2.85800000       1.31850000
C        2.16050000       1.81040000       1.21170000
C        1.38450000       2.14960000       0.00830000
C       -0.90730000       1.98440000      -0.98160000
N       -1.62500000       2.43810000      -1.76510000
H        0.04720000      -2.28520000      -0.04150000
H       -1.01000000       2.83580000       1.43190000
H       -0.24870000       1.44880000       2.27390000
H        3.16930000       2.20480000       1.27350000
H        2.00640000       0.85400000       1.70550000
H        1.78850000       2.65100000      -0.86370000
