20
Properties=species:S:1:pos:R:3 gdb_20050=T pbc="F F F"
C       -0.20470000       1.18910000      -0.36700000
C        1.23960000       0.88580000      -0.04060000
C        0.18630000      -0.17750000       0.13240000
C       -0.22420000      -0.64260000       1.51650000
C       -1.64510000      -1.28330000       1.49950000
C       -1.36450000      -2.76660000       1.50460000
C       -0.09190000      -3.03390000       1.79220000
C        0.71100000      -1.77820000       2.03200000
H       -0.74820000       1.83960000       0.31120000
H       -0.48490000       1.30440000      -1.40830000
H        1.94510000       0.79410000      -0.85910000
H        1.65830000       1.33410000       0.85510000
H        0.18760000      -0.97200000      -0.61130000
H       -0.19470000       0.22120000       2.18910000
H       -2.23180000      -0.99740000       2.38390000
H       -2.22560000      -0.95630000       0.62880000
H       -2.13520000      -3.50810000       1.32290000
H        0.33550000      -4.02700000       1.88130000
H        1.67540000      -1.77570000       1.51050000
H        0.94040000      -1.66370000       3.10080000
