16
Properties=species:S:1:pos:R:3 gdb_27304=T pbc="F F F"
C       -0.00130000       1.50110000      -0.02130000
C       -0.00280000       0.00320000      -0.02200000
C       -1.12810000      -0.72320000      -0.12800000
N       -1.07950000      -2.11260000      -0.12430000
C        0.13210000      -2.71700000      -0.01070000
O        0.04890000      -4.05920000      -0.01920000
N        1.25900000      -2.11420000       0.09540000
C        1.28630000      -0.70600000       0.09860000
N        2.37150000      -0.03020000       0.20060000
H        0.61550000       1.88270000      -0.84110000
H       -1.01360000       1.90490000      -0.11570000
H        0.45310000       1.88200000       0.89870000
H       -2.11690000      -0.29240000      -0.22050000
H       -1.90990000      -2.67520000      -0.20220000
H        0.95890000      -4.37620000       0.06610000
H        3.15760000      -0.67890000       0.27410000
