17
Properties=species:S:1:pos:R:3 gdb_80134=T pbc="F F F"
O        0.65690000       0.74970000       0.90820000
C        0.11440000      -0.35070000       0.23730000
C       -1.43410000      -0.45520000       0.01560000
C       -2.23720000       0.81840000      -0.00900000
C       -2.58200000       1.13410000      -1.25960000
C       -2.04410000       0.13220000      -2.26410000
N       -1.17140000      -0.71500000      -1.43560000
C        0.18060000      -0.34170000      -1.30220000
N        0.98920000       0.01820000      -2.20360000
H        0.32940000       1.54840000       0.47710000
H        0.53920000      -1.24330000       0.70290000
H       -1.93570000      -1.26890000       0.55170000
H       -2.53600000       1.34940000       0.88650000
H       -3.20110000       1.97510000      -1.55080000
H       -2.85060000      -0.44690000      -2.73270000
H       -1.44950000       0.58590000      -3.06340000
H        1.88950000       0.26330000      -1.79010000
