22
Properties=species:S:1:pos:R:3 gdb_30704=T pbc="F F F"
C        0.04010000       1.55210000       0.09280000
C       -0.01360000       0.02370000       0.00970000
C       -1.44070000      -0.55290000      -0.06640000
C       -2.20110000      -0.13680000      -1.33170000
N       -1.41740000      -2.00920000       0.07470000
C       -0.87100000      -2.90360000      -0.81530000
C       -1.03270000      -4.17390000      -0.30990000
C       -1.70240000      -4.04950000       0.93690000
C       -1.92360000      -2.70720000       1.14430000
H        1.07000000       1.89340000       0.23380000
H       -0.34060000       2.02830000      -0.81560000
H       -0.54990000       1.92540000       0.93780000
H        0.55890000      -0.32220000      -0.85970000
H        0.47290000      -0.40950000       0.89070000
H       -1.99850000      -0.18780000       0.80390000
H       -2.32860000       0.94830000      -1.36840000
H       -1.66480000      -0.44350000      -2.23540000
H       -3.19140000      -0.59920000      -1.35100000
H       -0.41580000      -2.56530000      -1.73200000
H       -0.70780000      -5.08720000      -0.78470000
H       -1.99160000      -4.84810000       1.60280000
H       -2.39920000      -2.18370000       1.95910000
