16
Properties=species:S:1:pos:R:3 gdb_124081=T pbc="F F F"
C       -0.03930000       1.37590000      -0.31800000
O        1.11300000       1.69120000       0.48800000
C        1.41950000       0.29410000       0.66410000
C        0.07190000      -0.13390000       0.02400000
C       -0.95180000      -0.65070000       0.97520000
N       -1.59900000      -1.76270000       0.71180000
O       -2.46710000      -1.96160000       1.78210000
C       -2.31160000      -0.95790000       2.65660000
C       -1.37080000      -0.08610000       2.21940000
H       -0.94250000       1.88910000       0.02910000
H        0.12440000       1.60630000      -1.37860000
H        2.30320000      -0.00940000       0.08830000
H        1.56460000       0.02990000       1.71710000
H        0.14610000      -0.80810000      -0.82890000
H       -2.93530000      -1.00040000       3.53620000
H       -1.02010000       0.81610000       2.69220000
