16
Properties=species:S:1:pos:R:3 gdb_67183=T pbc="F F F"
O       -0.19020000       1.40660000      -0.02820000
C        0.00900000       0.04930000      -0.01340000
C       -1.00640000      -1.07930000       0.09650000
C       -0.41070000      -1.77380000      -1.12250000
C        0.84400000      -0.82990000      -1.01060000
C        1.84820000      -1.52090000      -0.13000000
N        2.99410000      -1.94170000      -0.44750000
O        1.26390000      -1.67520000       1.11360000
C        0.09130000      -0.87430000       1.14610000
H        0.57070000       1.83850000       0.37820000
H       -2.04990000      -1.04420000       0.38640000
H       -0.22130000      -2.84950000      -1.06330000
H       -0.97950000      -1.54920000      -2.02670000
H        1.24720000      -0.40600000      -1.92490000
H        3.44150000      -2.40030000       0.34860000
H       -0.19640000      -0.57860000       2.14620000
