18
Properties=species:S:1:pos:R:3 gdb_89653=T pbc="F F F"
C       -0.02910000       1.52270000       0.05730000
C        0.17090000       0.04370000      -0.03080000
N       -0.70240000      -0.91980000       0.67080000
C        0.77680000      -0.94200000       0.93450000
C        1.36460000      -1.78280000      -0.20460000
C        0.70560000      -0.77770000      -1.22440000
O       -0.25370000      -1.26500000      -2.11690000
C        1.29650000      -0.72550000       2.23810000
C        1.75150000      -0.54510000       3.33830000
H        0.84320000       2.05760000      -0.33170000
H       -0.90150000       1.83370000      -0.52840000
H       -0.18180000       1.83650000       1.09540000
H       -1.14180000      -0.43110000       1.45050000
H        2.45560000      -1.76570000      -0.23510000
H        1.00250000      -2.81200000      -0.25590000
H        1.45220000      -0.23760000      -1.81130000
H       -0.96560000      -1.61390000      -1.56270000
H        2.15200000      -0.38870000       4.30920000
