23
Properties=species:S:1:pos:R:3 gdb_101243=T pbc="F F F"
C       -0.41040000       2.58430000      -1.64390000
C        0.04500000       1.35510000      -0.84360000
C       -1.14010000       0.59300000      -0.22620000
O       -1.90500000       1.37460000       0.67650000
C        0.83830000       0.42340000      -1.73610000
O        2.14630000       0.84480000      -2.14370000
C        2.03460000      -0.35430000      -1.35270000
C        2.64350000      -0.28030000       0.03110000
C        2.34640000      -1.62790000      -2.11200000
H        0.45110000       3.09000000      -2.08770000
H       -1.08930000       2.29970000      -2.45770000
H       -0.92590000       3.30630000      -1.00260000
H        0.68130000       1.69910000      -0.02240000
H       -1.77320000       0.17900000      -1.02900000
H       -0.76830000      -0.25460000       0.35930000
H       -2.37470000       2.04220000       0.16790000
H        0.24670000       0.01190000      -2.56080000
H        2.45270000       0.67950000       0.51260000
H        2.25030000      -1.07810000       0.67070000
H        3.72920000      -0.41270000      -0.03340000
H        3.42950000      -1.75250000      -2.21980000
H        1.96050000      -2.50420000      -1.57980000
H        1.90490000      -1.60360000      -3.11120000
