21
Properties=species:S:1:pos:R:3 gdb_50692=T pbc="F F F"
O       -0.02740000      -0.05650000       0.02480000
C        0.01660000       1.14630000       0.06770000
C        1.28620000       1.97480000       0.04640000
C        1.38200000       2.76850000      -1.27610000
C        2.57110000       3.73510000      -1.23840000
C        2.39180000       4.82420000      -0.16870000
C        1.92040000       4.27680000       1.17950000
C        0.44710000       4.07460000       1.43680000
C        1.35030000       2.87400000       1.27630000
H       -0.91780000       1.75310000       0.12450000
H        2.12300000       1.26770000       0.08120000
H        1.48500000       2.06020000      -2.10460000
H        0.45290000       3.32620000      -1.45800000
H        3.48350000       3.16080000      -1.03180000
H        2.70900000       4.20080000      -2.22010000
H        3.33930000       5.35490000      -0.03210000
H        1.67630000       5.57240000      -0.53310000
H        2.50540000       4.59820000       2.03530000
H        0.05170000       4.28640000       2.42410000
H       -0.23350000       4.32560000       0.62890000
H        1.57010000       2.33290000       2.19210000
