21
Properties=species:S:1:pos:R:3 gdb_70789=T pbc="F F F"
C       -0.10480000       1.48230000       0.07660000
C        0.08740000      -0.00690000       0.05700000
C        0.96820000      -0.76980000      -0.96200000
C        0.82970000      -1.91610000       0.05210000
C        1.66100000      -3.17210000       0.04510000
C       -0.72310000      -1.98160000       0.41090000
C       -0.38010000      -1.65920000       1.88350000
C        0.75340000      -0.86090000       1.22610000
O       -1.16720000      -0.71070000      -0.07900000
H        0.85860000       1.99510000       0.15020000
H       -0.60220000       1.81430000      -0.84080000
H       -0.72510000       1.78200000       0.92690000
H        0.56920000      -0.87930000      -1.97470000
H        1.99880000      -0.40150000      -0.98780000
H        2.73140000      -2.93980000       0.02880000
H        1.46920000      -3.79350000       0.92690000
H        1.44080000      -3.78150000      -0.83960000
H       -1.39050000      -2.78380000       0.09650000
H       -1.15060000      -1.14280000       2.46130000
H        0.00640000      -2.51840000       2.43770000
H        1.62340000      -0.45580000       1.74190000
