18
Properties=species:S:1:pos:R:3 gdb_90547=T pbc="F F F"
C        0.33570000       1.58440000      -0.10760000
C        0.06580000       0.09570000      -0.00590000
N        0.96470000      -0.77850000      -0.83360000
C        1.23460000      -1.66190000       0.31870000
C        2.51940000      -1.22600000       1.08250000
O        1.78500000      -0.22420000       1.80560000
C        0.52510000      -0.66630000       1.26430000
C        3.09800000      -2.31070000       1.96050000
O        2.86450000      -2.45760000       3.13040000
H        1.36740000       1.80080000       0.17810000
H        0.17590000       1.93420000      -1.13240000
H       -0.33490000       2.14540000       0.55230000
H       -0.99700000      -0.11900000      -0.18860000
H        0.49740000      -1.24060000      -1.60450000
H        1.01300000      -2.72460000       0.21380000
H        3.29820000      -0.80670000       0.43280000
H       -0.20360000      -0.89710000       2.04290000
H        3.75510000      -3.01740000       1.39770000
