15
Properties=species:S:1:pos:R:3 gdb_130245=T pbc="F F F"
N       -0.01530000       1.34680000      -0.11160000
C       -0.00670000      -0.01450000       0.02620000
N       -1.06480000      -0.71570000       0.36860000
O       -0.54060000      -2.03060000       0.45170000
C        0.75600000      -1.94620000       0.13810000
N        1.15400000      -0.74060000      -0.14070000
C        1.55700000      -3.17600000       0.13360000
C        1.31620000      -4.21070000       1.18630000
N        0.92150000      -4.46630000      -0.19700000
H        0.70600000       1.70570000      -0.71750000
H       -0.92440000       1.76040000      -0.25200000
H        2.55540000      -3.03370000      -0.26430000
H        2.16010000      -4.79360000       1.54290000
H        0.54670000      -4.00120000       1.92310000
H       -0.08160000      -4.32720000      -0.30030000
