16
Properties=species:S:1:pos:R:3 gdb_56705=T pbc="F F F"
C        0.59120000       1.60970000      -0.15720000
C        0.13290000       0.14730000       0.02210000
C        0.41030000      -0.63260000      -1.18720000
N        0.61390000      -1.23990000      -2.14890000
C        0.78480000      -0.48320000       1.26550000
C        1.33360000      -1.85510000       1.26010000
O        2.19290000      -0.71970000       1.15530000
C        0.33190000       0.09050000       2.51220000
C       -0.07750000       0.58040000       3.53030000
H        1.67340000       1.64870000      -0.29950000
H        0.10490000       2.06060000      -1.02460000
H        0.33060000       2.18490000       0.73400000
H       -0.95260000       0.12820000       0.17830000
H        1.38850000      -2.39570000       2.20260000
H        1.24470000      -2.45890000       0.36010000
H       -0.42540000       1.00480000       4.44020000
