16
Properties=species:S:1:pos:R:3 gdb_54775=T pbc="F F F"
N       -0.09500000       1.36350000       0.03300000
C        0.10100000       0.01340000      -0.02260000
O        1.21150000      -0.48290000      -0.02920000
C       -1.19790000      -0.78390000      -0.04200000
C       -1.83970000      -1.15190000      -1.44340000
C       -0.69550000      -2.21150000      -1.59450000
C       -1.11600000      -2.34650000      -0.08410000
C       -2.54790000      -2.25580000      -0.63740000
O       -3.61720000      -2.76790000      -0.52560000
H        0.71390000       1.96270000       0.01220000
H       -1.00760000       1.78000000      -0.02420000
H       -1.90400000      -0.36500000       0.68220000
H       -2.23410000      -0.46770000      -2.19170000
H       -0.90220000      -3.06450000      -2.24260000
H        0.30300000      -1.80920000      -1.74240000
H       -0.69270000      -2.99960000       0.67380000
