20
Properties=species:S:1:pos:R:3 gdb_14699=T pbc="F F F"
C        0.01490000       1.56550000       0.01050000
C        0.01360000       0.03570000       0.00240000
C       -1.41310000      -0.55080000       0.01200000
C       -1.43550000      -2.00950000       0.00440000
C       -1.41500000      -3.21410000      -0.00240000
C       -1.43140000      -4.67140000      -0.01000000
C       -2.85330000      -5.24310000       0.00160000
O       -2.73270000      -6.65570000      -0.00720000
H        1.03540000       1.96020000       0.00350000
H       -0.50370000       1.96830000      -0.86680000
H       -0.48800000       1.95900000       0.90110000
H        0.54310000      -0.33790000      -0.88110000
H        0.55860000      -0.34710000       0.87240000
H       -1.94990000      -0.17740000       0.89500000
H       -1.96550000      -0.16800000      -0.85730000
H       -0.91230000      -5.05900000      -0.89550000
H       -0.89410000      -5.06850000       0.86020000
H       -3.38320000      -4.88440000       0.89670000
H       -3.40160000      -4.87480000      -0.87830000
H       -3.61650000      -7.03400000      -0.00010000
