17
Properties=species:S:1:pos:R:3 gdb_77456=T pbc="F F F"
C        0.03480000       1.59610000      -0.01140000
C        0.09870000       0.08550000      -0.02450000
C        0.68270000      -0.74820000      -1.12200000
C        0.05470000      -1.80460000      -1.96390000
O        1.81830000      -0.01810000      -1.69470000
C        2.52650000      -0.13790000      -0.50230000
O        3.65820000       0.15640000      -0.29930000
C        1.36210000      -0.76920000       0.23090000
O        1.43300000      -1.77410000       1.16190000
H        0.86850000       2.03290000      -0.56500000
H       -0.89380000       1.94160000      -0.47780000
H        0.05780000       1.98230000       1.01250000
H       -0.74890000      -0.41660000       0.44320000
H       -0.48790000      -1.36310000      -2.80620000
H        0.81550000      -2.48290000      -2.36050000
H       -0.65360000      -2.38440000      -1.36570000
H        1.43610000      -1.38350000       2.04300000
