16
Properties=species:S:1:pos:R:3 gdb_32030=T pbc="F F F"
C        0.03190000       1.46680000      -0.02600000
N       -0.03230000       0.01810000       0.07970000
C       -1.22290000      -0.64050000       0.03990000
N       -2.34740000       0.03370000       0.06170000
C       -3.48800000      -0.71440000       0.06120000
C       -3.54940000      -2.07500000       0.02460000
C       -2.33010000      -2.84350000      -0.00540000
O       -2.18330000      -4.05100000      -0.03330000
N       -1.18240000      -2.00440000       0.00530000
H        1.05190000       1.78430000       0.19990000
H       -0.24630000       1.82710000      -1.02390000
H       -0.65220000       1.91390000       0.69610000
H        0.79170000      -0.49860000      -0.17920000
H       -4.40650000      -0.13270000       0.08730000
H       -4.48820000      -2.61150000       0.02010000
H       -0.30390000      -2.50600000       0.01730000
