21
Properties=species:S:1:pos:R:3 gdb_111429=T pbc="F F F"
C       -0.05520000       1.56850000      -0.05070000
C        0.02760000       0.03890000      -0.02940000
C        0.73770000      -0.52510000       1.21180000
C        0.68830000      -2.05760000       1.34180000
C        1.37210000      -2.94040000       0.32760000
C        2.08670000      -2.58380000       1.60970000
C        3.00990000      -1.38740000       1.54600000
O        3.04330000      -0.72390000       0.27110000
C        2.22140000      -0.16840000       1.31010000
H        0.94010000       2.02460000      -0.06600000
H       -0.59170000       1.92120000      -0.93690000
H       -0.58300000       1.95150000       0.83040000
H       -0.98410000      -0.38240000      -0.07430000
H        0.55100000      -0.31610000      -0.92370000
H        0.25670000      -0.10360000       2.10670000
H       -0.16540000      -2.47700000       1.86370000
H        0.99820000      -3.95450000       0.23590000
H        1.75280000      -2.50580000      -0.58760000
H        2.28940000      -3.34520000       2.35330000
H        3.95260000      -1.39460000       2.08630000
H        2.52640000       0.81830000       1.65260000
