17
Properties=species:S:1:pos:R:3 gdb_23450=T pbc="F F F"
C       -0.03650000       1.47900000      -0.01680000
C        0.03520000      -0.02390000      -0.05140000
C        0.69870000      -0.74520000      -1.18510000
N        1.37440000      -0.64720000       0.13140000
C        1.28550000      -1.96530000       0.66440000
C        0.77300000      -2.87790000      -0.17930000
C        0.39210000      -2.18950000      -1.41300000
N       -0.05900000      -2.62700000      -2.52910000
O       -0.21950000      -4.02410000      -2.49270000
H        0.83280000       1.92110000      -0.51020000
H       -0.94170000       1.82960000      -0.52380000
H       -0.06340000       1.84270000       1.01560000
H       -0.78300000      -0.55430000       0.43200000
H        1.11730000      -0.15820000      -1.99570000
H        1.62750000      -2.11910000       1.68060000
H        0.64210000      -3.93360000      -0.00060000
H       -0.53820000      -4.21330000      -3.38120000
