18
Properties=species:S:1:pos:R:3 gdb_65706=T pbc="F F F"
C        0.00830000       1.54680000      -0.41720000
C       -0.00040000       0.08030000      -0.05200000
C        1.22430000      -0.75080000      -0.12900000
C        0.62390000      -0.45820000       1.24640000
C        1.33440000       0.43160000       2.19280000
O        1.23180000       0.36430000       3.39290000
O       -1.16580000      -0.59470000      -0.47170000
C       -2.29210000      -0.38140000       0.25400000
N       -3.39160000      -0.83540000      -0.16110000
H        0.96720000       2.01260000      -0.17940000
H       -0.16840000       1.65110000      -1.49200000
H       -0.77640000       2.09700000       0.11180000
H        1.12350000      -1.76560000      -0.49360000
H        2.15640000      -0.25560000      -0.38070000
H        0.07820000      -1.26490000       1.72300000
H        2.00170000       1.18730000       1.71720000
H       -2.11460000       0.17430000       1.18290000
H       -4.13080000      -0.61700000       0.50400000
