18
Properties=species:S:1:pos:R:3 gdb_61028=T pbc="F F F"
C       -0.07440000       1.56620000       0.02430000
C        0.02980000       0.03480000      -0.00070000
C        0.79890000      -0.43100000      -1.22820000
O        0.46830000      -1.35730000      -1.92380000
C        0.67850000      -0.51070000       1.28590000
C        0.83950000      -2.05470000       1.36650000
N        2.28920000      -2.28480000       1.49860000
C        2.82210000      -1.13820000       1.50040000
O        2.04760000      -0.02600000       1.39600000
H        0.91750000       2.02160000       0.09590000
H       -0.56420000       1.94530000      -0.87750000
H       -0.65860000       1.89660000       0.88860000
H       -0.96620000      -0.41850000      -0.06550000
H        1.71830000       0.15480000      -1.45150000
H        0.13170000      -0.10690000       2.14460000
H        0.31740000      -2.47960000       2.22890000
H        0.46490000      -2.55820000       0.46970000
H        3.88410000      -0.93410000       1.57980000
