21
Properties=species:S:1:pos:R:3 gdb_86385=T pbc="F F F"
C        0.11870000       1.57770000      -0.02140000
C        0.02030000       0.05130000       0.01390000
C        0.63290000      -0.65270000      -1.22150000
C        1.14520000      -2.03280000      -0.73780000
O        2.27700000      -2.51490000      -1.44040000
C        1.40540000      -1.83950000       0.75390000
C        1.71680000      -3.01950000       1.62830000
O        2.19410000      -0.64360000       0.97050000
C        0.76880000      -0.58890000       1.17310000
H        1.16760000       1.89000000      -0.04990000
H       -0.38180000       1.98560000      -0.90550000
H       -0.34500000       2.02870000       0.86250000
H       -1.03560000      -0.23710000       0.11480000
H       -0.07280000      -0.74120000      -2.05050000
H        1.48950000      -0.07660000      -1.58540000
H        0.37630000      -2.80370000      -0.86950000
H        2.99040000      -1.88740000      -1.27160000
H        2.58180000      -3.56150000       1.23270000
H        1.94090000      -2.69890000       2.64840000
H        0.87130000      -3.71540000       1.65430000
H        0.45970000      -0.40750000       2.20100000
