19
Properties=species:S:1:pos:R:3 gdb_37016=T pbc="F F F"
C        0.03050000       1.39500000       0.00930000
C        1.34470000       0.66250000      -0.00720000
C        2.02880000       0.41320000       1.33670000
C        1.03250000      -0.46300000       2.08320000
C       -0.03310000      -0.78200000       1.34010000
C        0.03490000      -0.13120000       0.00100000
C       -0.05880000      -0.76750000      -1.34350000
C        0.99250000      -0.44050000      -2.10320000
C        2.00300000       0.42780000      -1.36660000
H       -0.26670000       1.88480000       0.93140000
H       -0.28420000       1.89470000      -0.90170000
H        2.99130000      -0.10150000       1.20700000
H        2.24860000       1.33910000       1.88410000
H        1.18410000      -0.76070000       3.11560000
H       -0.86020000      -1.40310000       1.66590000
H       -0.89190000      -1.38520000      -1.66000000
H        1.12430000      -0.72710000      -3.14150000
H        2.21240000       1.35950000      -1.90810000
H        2.96770000      -0.08820000      -1.26080000
