18
Properties=species:S:1:pos:R:3 gdb_37420=T pbc="F F F"
C        0.17360000       1.58060000       0.01730000
C        1.38030000       0.68080000       0.09350000
C       -0.01520000       0.08250000      -0.00960000
N       -0.12940000      -0.64790000      -1.26460000
C       -0.53880000       0.09180000      -2.50910000
C        0.92140000       0.11200000      -2.98910000
O        1.68990000       1.17200000      -2.36900000
C        2.05900000       0.33300000      -1.22640000
C        1.24900000      -0.83370000      -1.82020000
H       -0.12550000       2.08990000       0.92760000
H        0.05580000       2.15980000      -0.88910000
H        1.96740000       0.63220000       1.00340000
H       -0.48340000      -0.38510000       0.85110000
H       -1.19080000      -0.53410000      -3.12910000
H       -1.01800000       1.06200000      -2.35470000
H        1.16990000      -0.01740000      -4.04350000
H        3.14740000       0.25100000      -1.15020000
H        1.63360000      -1.85300000      -1.86330000
