18
Properties=species:S:1:pos:R:3 gdb_128120=T pbc="F F F"
C       -0.16320000       1.44180000      -0.09280000
N       -0.10060000      -0.00640000       0.02370000
C        0.60230000      -0.69400000      -0.97710000
C        0.82700000      -2.06310000      -1.03960000
C        0.44960000      -3.18780000      -0.13240000
O        0.05240000      -4.35150000      -0.85350000
N        1.51450000      -2.26840000      -2.19920000
N        1.72560000      -1.15250000      -2.90600000
C        1.18650000      -0.18400000      -2.16320000
H        0.82360000       1.93270000      -0.11980000
H       -0.69770000       1.71350000      -1.00900000
H       -0.72620000       1.84350000       0.75340000
H        0.17410000      -0.29250000       0.95320000
H        1.29510000      -3.51920000       0.48350000
H       -0.33520000      -2.84020000       0.55630000
H       -0.70600000      -4.10600000      -1.39520000
H        1.79230000      -3.16150000      -2.57050000
H        1.22550000       0.83810000      -2.50730000
