20
Properties=species:S:1:pos:R:3 gdb_113540=T pbc="F F F"
C       -0.35830000       1.41810000       0.29080000
C        0.13380000       0.02450000      -0.04000000
O        1.42070000       0.02790000      -0.72060000
C        2.04620000      -0.76840000       0.30370000
C        0.74220000      -0.81190000       1.09200000
N        0.54650000      -0.55450000       2.51300000
C        0.19290000      -1.88150000       1.94660000
C       -1.28180000      -2.20040000       2.01940000
O       -1.69280000      -2.42960000       3.35490000
H        0.35620000       1.94180000       0.93120000
H       -0.49550000       1.99310000      -0.62990000
H       -1.31770000       1.36950000       0.81560000
H       -0.60860000      -0.51690000      -0.64270000
H        2.40800000      -1.73180000      -0.07900000
H        2.87910000      -0.24110000       0.78980000
H        1.43410000      -0.59690000       3.00870000
H        0.85600000      -2.71210000       2.18560000
H       -1.85620000      -1.38220000       1.55800000
H       -1.50300000      -3.11740000       1.46320000
H       -1.43620000      -1.64140000       3.84840000
