18
Properties=species:S:1:pos:R:3 gdb_94667=T pbc="F F F"
O        0.23150000       1.27600000      -0.04310000
C       -0.03020000      -0.10070000       0.08780000
C       -0.54620000      -0.60930000       1.45400000
O       -1.78630000      -1.05370000       0.86170000
C       -1.43010000      -0.50140000      -0.42970000
C       -2.34380000       0.63940000      -0.84900000
O       -3.62660000       0.14980000      -1.22850000
C       -4.52090000      -0.05600000      -0.23650000
N       -5.64760000      -0.55550000      -0.50740000
H        1.13250000       1.45080000       0.24460000
H        0.78050000      -0.70640000      -0.33300000
H        0.00360000      -1.43620000       1.91800000
H       -0.69520000       0.19400000       2.18670000
H       -1.44590000      -1.27870000      -1.20240000
H       -2.42750000       1.37890000      -0.04500000
H       -1.93410000       1.13940000      -1.73020000
H       -4.15750000       0.25290000       0.75040000
H       -6.20390000      -0.62530000       0.34220000
