13
Properties=species:S:1:pos:R:3 gdb_17145=T pbc="F F F"
C       -0.02250000      -1.14870000       0.03870000
C       -0.02990000       0.05390000       0.05270000
C       -0.04750000       1.48070000       0.05030000
N       -0.69700000       2.33410000       1.10770000
C       -0.15690000       3.34800000       0.14890000
C        1.12920000       2.51410000      -0.11400000
O        1.03470000       2.58800000      -1.56010000
C       -0.35010000       2.48370000      -1.13910000
H       -0.01060000      -2.21080000       0.03050000
H       -1.71500000       2.27120000       1.02750000
H       -0.25750000       4.42410000       0.27930000
H        2.10620000       2.53330000       0.36480000
H       -1.13740000       2.46430000      -1.89400000
