18
Properties=species:S:1:pos:R:3 gdb_37600=T pbc="F F F"
C       -0.01500000       1.49520000       0.07840000
C        1.48540000       1.84610000      -0.06650000
O        1.71760000       1.98810000      -1.47050000
C        1.65890000       0.67200000      -1.94320000
C        2.24390000      -0.27010000      -0.94820000
C        0.74370000      -0.34640000      -1.24910000
N       -0.00580000       0.01570000      -0.01090000
C        1.00210000      -0.26820000       1.04750000
C        2.18030000       0.49050000       0.38530000
H       -0.44500000       1.79060000       1.03950000
H       -0.59310000       1.94900000      -0.72820000
H        1.82820000       2.75390000       0.43060000
H        1.81580000       0.60150000      -3.01300000
H        2.97350000      -1.04350000      -1.14930000
H        0.31580000      -1.14440000      -1.84510000
H        0.66710000       0.12300000       2.01290000
H        1.19180000      -1.33990000       1.14070000
H        3.12140000       0.59380000       0.92380000
