16
Properties=species:S:1:pos:R:3 gdb_9242=T pbc="F F F"
C        0.03000000       1.40850000       0.04960000
O       -0.07800000       0.00380000      -0.02800000
C        0.62080000      -0.57170000      -1.12590000
C        2.12540000      -0.72020000      -0.84080000
C        0.01030000      -1.86750000      -1.41730000
C       -0.46660000      -2.94580000      -1.68680000
C       -1.00520000      -4.16060000      -1.97990000
C       -1.48210000      -5.23800000      -2.24390000
H        1.05690000       1.74610000       0.25190000
H       -0.31860000       1.89390000      -0.87530000
H       -0.60820000       1.72770000       0.87660000
H        0.49100000       0.07220000      -2.01350000
H        2.57950000       0.25840000      -0.66320000
H        2.27500000      -1.34670000       0.04160000
H        2.63010000      -1.18320000      -1.69300000
H       -1.90210000      -6.18630000      -2.47080000
