17
Properties=species:S:1:pos:R:3 gdb_99388=T pbc="F F F"
C        0.07340000       1.22350000      -0.20360000
O        0.12790000      -0.19020000       0.03960000
C        0.64260000      -0.55190000       1.22650000
O        1.03700000       0.22770000       2.05900000
C        0.66580000      -2.05870000       1.37330000
C        1.13430000      -2.47040000       2.76440000
O        1.10010000      -3.89750000       2.87250000
C        2.26270000      -4.55110000       3.06010000
O        2.32910000      -5.73920000       3.14820000
H        1.07630000       1.65660000      -0.17940000
H       -0.36840000       1.33580000      -1.19330000
H       -0.54250000       1.71920000       0.55060000
H       -0.33170000      -2.45890000       1.16690000
H        1.32520000      -2.47700000       0.60420000
H        2.14260000      -2.09100000       2.96270000
H        0.47130000      -2.06670000       3.53320000
H        3.13200000      -3.86680000       3.12450000
