13
Properties=species:S:1:pos:R:3 gdb_7223=T pbc="F F F"
C        0.02920000       1.50440000       0.00930000
C        0.03630000      -0.00000000       0.00130000
O        1.02840000      -0.69000000      -0.01200000
C       -1.35180000      -0.68700000       0.01110000
O       -2.36710000      -0.04340000       0.02440000
C       -1.29510000      -2.21770000       0.00260000
C       -2.61090000      -2.84000000       0.01170000
N       -3.64790000      -3.34720000       0.01870000
H        1.05300000       1.87760000       0.00150000
H       -0.52280000       1.88030000      -0.85830000
H       -0.50620000       1.87110000       0.89110000
H       -0.72110000      -2.54150000      -0.87330000
H       -0.70490000      -2.55060000       0.86420000
