21
Properties=species:S:1:pos:R:3 gdb_89347=T pbc="F F F"
C       -0.15320000       1.61750000      -0.12320000
C        0.04560000       0.10870000      -0.03230000
C        1.15780000      -0.56400000      -0.90790000
C        1.78320000      -1.19930000       0.34280000
C        2.23810000      -2.62410000       0.45860000
C        2.17430000      -0.14170000       1.30740000
C        0.69700000      -0.47410000       1.23120000
C        0.00660000      -1.10500000       2.35780000
O        0.55640000      -1.65000000       3.29250000
H        0.77960000       2.16090000       0.05930000
H       -0.51460000       1.90420000      -1.11680000
H       -0.88810000       1.96220000       0.61230000
H       -0.91100000      -0.39450000      -0.21170000
H        0.75910000      -1.29660000      -1.61330000
H        1.81460000       0.12250000      -1.45350000
H        3.23420000      -2.75120000       0.01720000
H        2.29120000      -2.92700000       1.50840000
H        1.55540000      -3.30590000      -0.05980000
H        2.64030000      -0.48820000       2.22390000
H        2.51030000       0.83240000       0.96080000
H       -1.10590000      -1.08990000       2.28410000
