19
Properties=species:S:1:pos:R:3 gdb_84106=T pbc="F F F"
C       -0.02600000       1.50020000       0.08890000
C       -0.02410000       0.00800000      -0.00800000
C        0.00850000      -0.74190000      -1.11650000
C       -0.03160000      -2.22680000      -0.81660000
O        0.95720000      -3.01100000      -1.47650000
C        0.03430000      -2.27470000       0.71420000
O       -0.68140000      -3.27240000       1.37170000
C        1.25850000      -1.69210000       1.38280000
C       -0.01510000      -0.86350000       1.21560000
H        0.83120000       1.85770000       0.67310000
H        0.00800000       1.96900000      -0.89800000
H       -0.92510000       1.85900000       0.60550000
H        0.05690000      -0.36570000      -2.13250000
H       -0.98260000      -2.67340000      -1.13480000
H        1.81590000      -2.63700000      -1.24840000
H       -0.25150000      -4.11270000       1.17360000
H        1.46020000      -2.07700000       2.37690000
H        2.13340000      -1.40840000       0.80470000
H       -0.57710000      -0.59120000       2.10180000
