12
Properties=species:S:1:pos:R:3 gdb_5055=T pbc="F F F"
O        0.07420000       0.25670000      -0.91590000
C       -0.01360000       1.23260000      -0.21010000
C       -1.29960000       1.82230000       0.21710000
C       -1.56310000       3.14520000       0.14600000
N       -0.74530000       4.16110000      -0.30600000
C        0.54190000       4.12570000      -0.28270000
C        1.38410000       3.07390000       0.28840000
N        1.12780000       1.82280000       0.36390000
H       -2.09250000       1.12760000       0.47860000
H       -2.56830000       3.48930000       0.37830000
H        1.06050000       5.01620000      -0.64380000
H        2.33020000       3.41460000       0.71970000
