15
Properties=species:S:1:pos:R:3 gdb_23509=T pbc="F F F"
O       -0.14240000       1.35860000       0.02050000
N       -0.01960000      -0.02590000      -0.15580000
C       -1.11170000      -0.62590000       0.14210000
C       -2.48330000      -0.11120000       0.28550000
C       -3.26450000      -1.19980000       0.50560000
N       -3.81880000      -1.83950000      -0.72080000
C       -2.62310000      -2.77920000      -0.47180000
C       -2.46460000      -2.43490000       0.95300000
C       -1.27830000      -2.11620000       0.08330000
H        0.70180000       1.68260000      -0.31150000
H       -2.79720000       0.74450000      -0.30070000
H       -4.61790000      -2.43390000      -0.47760000
H       -2.58200000      -3.73460000      -0.98770000
H       -2.50410000      -3.00220000       1.87450000
H       -0.41190000      -2.77030000       0.04230000
