17
Properties=species:S:1:pos:R:3 gdb_22951=T pbc="F F F"
O       -0.12420000       1.36670000      -0.04920000
N        0.04640000      -0.02670000      -0.03280000
C       -1.06680000      -0.62080000       0.01090000
C       -2.53630000      -0.26350000       0.00730000
N       -2.83620000      -1.70990000      -0.21730000
C       -1.40620000      -2.09820000       0.00770000
C       -0.79260000      -2.96650000      -1.09850000
C       -1.44250000      -4.33090000      -1.16090000
O       -0.85640000      -5.37690000      -1.04280000
H        0.78430000       1.68430000      -0.09370000
H       -2.88320000       0.14910000       0.96400000
H       -2.87490000       0.39710000      -0.79770000
H       -3.47580000      -2.10150000       0.46430000
H       -1.22560000      -2.56360000       0.98740000
H       -0.96250000      -2.46190000      -2.05790000
H        0.28260000      -3.08400000      -0.94020000
H       -2.54310000      -4.30360000      -1.32460000
