16
Properties=species:S:1:pos:R:3 gdb_26540=T pbc="F F F"
C        0.01260000       1.53050000       0.00910000
C       -0.04630000       0.03710000       0.01590000
C       -1.16920000      -0.71150000      -0.06920000
O       -2.40310000      -0.19030000      -0.17330000
C       -1.10020000      -2.17680000      -0.05160000
N       -2.23330000      -2.78260000      -0.13780000
N        0.14540000      -2.78670000       0.05350000
C        1.18480000      -2.02060000       0.13120000
N        1.15780000      -0.66740000       0.11910000
H        0.60460000       1.90720000      -0.83460000
H       -0.99630000       1.93510000      -0.07460000
H        0.46370000       1.92070000       0.93030000
H       -2.97360000      -0.99070000      -0.21230000
H       -2.11250000      -3.79340000      -0.11980000
H        2.17450000      -2.46460000       0.21440000
H        2.02120000      -0.15230000       0.18270000
