15
Properties=species:S:1:pos:R:3 gdb_66667=T pbc="F F F"
C       -0.02090000       1.50370000       0.03030000
C       -0.05840000       0.01920000      -0.06850000
C        0.55140000      -0.98420000      -1.09010000
C        0.84980000      -1.88610000       0.06360000
N        0.28530000      -0.90270000       1.07900000
C       -1.04730000      -0.99800000       0.38000000
C       -0.49510000      -2.03420000      -0.63260000
C       -1.06030000      -3.10640000      -1.35800000
N       -1.53330000      -3.98530000      -1.94680000
H        1.00970000       1.87300000       0.00190000
H       -0.57670000       1.96770000      -0.79130000
H       -0.47020000       1.82280000       0.97550000
H        0.99810000      -0.89320000      -2.06990000
H        1.62490000      -2.61670000       0.25480000
H       -1.99270000      -0.92500000       0.90300000
