18
Properties=species:S:1:pos:R:3 gdb_70526=T pbc="F F F"
C        0.15140000       1.51650000      -0.17370000
C        0.01110000       0.02540000       0.00330000
C       -1.25170000      -0.61070000      -0.54770000
O       -2.34620000      -0.47710000       0.37220000
C       -2.29410000      -1.13530000       1.56440000
N       -1.39010000      -1.77250000       2.17100000
C       -0.01470000      -1.93860000       1.70320000
C        0.62830000      -0.67880000       1.13550000
O        1.20250000      -0.75260000      -0.17970000
H        1.03840000       1.88870000       0.34430000
H        0.24100000       1.77140000      -1.23550000
H       -0.73070000       2.02910000       0.22390000
H       -1.59090000      -0.11120000      -1.45870000
H       -1.07510000      -1.66440000      -0.77720000
H       -3.27510000      -1.04170000       2.03130000
H        0.57120000      -2.28350000       2.56100000
H        0.04600000      -2.73760000       0.95610000
H        1.21660000      -0.08560000       1.83560000
