18
Properties=species:S:1:pos:R:3 gdb_7304=T pbc="F F F"
C        0.29150000       1.44850000       0.11670000
C       -0.04790000      -0.04920000      -0.01140000
C       -1.56490000      -0.28590000      -0.12210000
C       -2.24690000      -0.09760000       1.20990000
O       -3.10720000       0.71090000       1.44740000
C        0.70180000      -0.72520000      -1.16970000
C        2.20150000      -0.49550000      -1.24980000
O        0.13030000      -1.42420000      -1.97380000
H        1.35240000       1.61310000       0.32110000
H        0.03170000       1.98610000      -0.80140000
H       -0.28020000       1.89890000       0.93310000
H        0.32210000      -0.55280000       0.89750000
H       -2.01650000       0.38590000      -0.85720000
H       -1.73120000      -1.31610000      -0.45920000
H       -1.87730000      -0.78670000       2.00810000
H        2.40370000       0.50960000      -1.63660000
H        2.67370000      -0.56140000      -0.26450000
H        2.64150000      -1.22640000      -1.92910000
