21
Properties=species:S:1:pos:R:3 gdb_39413=T pbc="F F F"
C        0.06060000       1.49490000      -0.25010000
C        1.29780000       0.63590000      -0.11940000
C        2.27910000       0.89690000       1.01090000
C        2.80590000      -0.36050000       1.73800000
C        1.80440000      -1.52010000       1.93770000
C        0.39170000      -1.16190000       2.38390000
O        0.06680000       0.20890000       2.66530000
C       -0.51340000      -0.39880000       1.50610000
C       -0.06950000       0.04350000       0.14720000
H       -0.09950000       2.23590000       0.52660000
H       -0.28250000       1.79270000      -1.23490000
H        1.75130000       0.31440000      -1.05410000
H        3.13360000       1.45800000       0.61270000
H        1.79810000       1.54030000       1.74750000
H        3.66600000      -0.77520000       1.19800000
H        3.18930000      -0.04590000       2.71510000
H        1.71450000      -2.08510000       1.00090000
H        2.23490000      -2.21770000       2.66470000
H       -0.06300000      -1.85850000       3.08950000
H       -1.58750000      -0.57110000       1.60160000
H       -0.45300000      -0.61810000      -0.62720000
