19
Properties=species:S:1:pos:R:3 gdb_1569=T pbc="F F F"
C       -0.28080000       1.37730000      -0.34420000
C       -0.08270000      -0.12780000      -0.53670000
C        1.28710000      -0.48430000      -1.11790000
O        2.36050000      -0.05880000      -0.28300000
C        1.43100000      -1.98010000      -1.40890000
O        0.46620000      -2.36010000      -2.36370000
C        0.52780000      -3.72570000      -2.69740000
H        0.50880000       1.79610000       0.28590000
H       -0.25030000       1.90250000      -1.30510000
H       -1.24580000       1.59420000       0.12360000
H       -0.19590000      -0.64920000       0.42670000
H       -0.85070000      -0.54050000      -1.19880000
H        1.43060000       0.05750000      -2.06080000
H        2.21770000      -0.43880000       0.59130000
H        2.45110000      -2.17820000      -1.77470000
H        1.29970000      -2.55660000      -0.47320000
H        1.50480000      -3.99720000      -3.12730000
H        0.34990000      -4.36870000      -1.82060000
H       -0.25060000      -3.91790000      -3.43990000
