20
Properties=species:S:1:pos:R:3 gdb_10307=T pbc="F F F"
C       -0.24900000       1.47450000       0.08800000
N        0.12660000       0.06870000      -0.04650000
C        0.76100000      -0.51020000       1.13290000
C       -0.15380000      -0.50810000       2.30290000
N       -0.92140000      -0.48630000       3.16800000
C        1.29630000      -1.93710000       0.84720000
C        2.31040000      -1.90300000      -0.30260000
C        1.90160000      -2.57520000       2.10370000
H        0.65500000       2.07880000       0.22060000
H       -0.73570000       1.80090000      -0.83470000
H       -0.92530000       1.68180000       0.93200000
H       -0.69000000      -0.48410000      -0.28870000
H        1.61550000       0.12960000       1.39360000
H        0.43300000      -2.54230000       0.53580000
H        2.62410000      -2.91850000      -0.56280000
H        1.88910000      -1.42510000      -1.18830000
H        3.20760000      -1.34390000      -0.01040000
H        1.17650000      -2.64500000       2.91880000
H        2.25770000      -3.58510000       1.88010000
H        2.75980000      -1.99450000       2.46240000
