15
Properties=species:S:1:pos:R:3 gdb_34170=T pbc="F F F"
N        0.04230000      -1.12430000      -0.02900000
C        0.01170000       0.03220000      -0.00310000
C       -0.05460000       1.46780000       0.02890000
C       -1.03660000       2.28710000       0.90320000
N       -0.85750000       3.41790000      -0.07270000
C        0.61120000       3.70010000      -0.05560000
C        0.91270000       2.97900000      -1.33530000
C        1.25140000       2.31050000      -0.01400000
C       -0.50620000       2.39790000      -1.16800000
H       -2.06140000       1.91110000       0.85040000
H       -0.75580000       2.50340000       1.93670000
H        1.04030000       4.59020000       0.38410000
H        1.51530000       3.23760000      -2.19350000
H        2.21190000       2.08090000       0.42360000
H       -1.24880000       2.13820000      -1.91830000
