22
Properties=species:S:1:pos:R:3 gdb_18519=T pbc="F F F"
C       -0.08030000       1.58240000      -0.03020000
C        0.08890000       0.06070000      -0.02070000
C        0.64280000      -0.47730000       1.30430000
C        0.81260000      -1.99390000       1.31750000
C        1.92860000      -2.66270000       0.43430000
C        2.47710000      -3.36050000       1.68510000
C        2.88550000      -2.33720000       2.70480000
C        1.42520000      -2.66920000       2.55590000
H        0.87630000       2.08780000       0.14380000
H       -0.47400000       1.93670000      -0.98830000
H       -0.77160000       1.90860000       0.75500000
H       -0.87790000      -0.41710000      -0.22860000
H        0.75520000      -0.23800000      -0.84070000
H        1.60460000       0.00810000       1.51720000
H       -0.03000000      -0.18720000       2.12390000
H       -0.15090000      -2.46140000       1.08480000
H        1.52060000      -3.34720000      -0.31250000
H        2.62600000      -1.98060000      -0.06600000
H        2.82840000      -4.38420000       1.72910000
H        3.35250000      -2.73240000       3.60150000
H        3.28110000      -1.37400000       2.39100000
H        0.85580000      -3.07360000       3.38510000
