21
Properties=species:S:1:pos:R:3 gdb_103661=T pbc="F F F"
C       -0.53610000       1.60920000       0.00510000
C        0.11460000       0.23100000       0.06180000
C       -0.91680000      -0.87480000      -0.15120000
O       -1.48660000      -0.71130000      -1.44310000
C        1.36960000       0.02490000      -0.84140000
C        2.16090000      -0.55300000       0.38270000
C        0.99560000      -0.06660000       1.31300000
C        2.38250000      -1.98620000       0.36350000
C        2.55730000      -3.17690000       0.34730000
H        0.20960000       2.40130000       0.13070000
H       -1.04120000       1.75850000      -0.95310000
H       -1.28280000       1.72290000       0.80040000
H       -0.42940000      -1.85630000      -0.05630000
H       -1.68690000      -0.80670000       0.63620000
H       -2.07400000      -1.45350000      -1.61020000
H        1.23990000      -0.64350000      -1.69330000
H        1.79870000       0.96660000      -1.19190000
H        3.11160000      -0.04590000       0.57120000
H        1.26400000       0.83910000       1.86260000
H        0.61070000      -0.80530000       2.02040000
H        2.72170000      -4.22560000       0.33270000
