20
Properties=species:S:1:pos:R:3 gdb_75571=T pbc="F F F"
C        0.51820000       1.44940000       0.13720000
C        0.03950000       0.02940000      -0.04940000
C       -0.01280000      -0.52200000      -1.26450000
C       -0.41810000      -1.92430000      -1.64030000
O       -0.01760000      -2.94120000      -0.74120000
C       -0.85910000      -3.11440000       0.36740000
C       -0.74260000      -2.05490000       1.44450000
N        0.59840000      -1.61850000       1.84000000
C       -0.34200000      -0.63810000       1.23020000
H        1.40800000       1.47900000       0.77860000
H        0.77080000       1.92050000      -0.81570000
H       -0.24500000       2.06500000       0.63110000
H        0.28510000       0.09580000      -2.11060000
H       -1.51020000      -1.97960000      -1.80430000
H        0.05320000      -2.17650000      -2.59670000
H       -1.91580000      -3.17420000       0.04980000
H       -0.58930000      -4.08420000       0.80250000
H       -1.47310000      -2.21150000       2.24120000
H        0.64450000      -1.47750000       2.84620000
H       -0.79060000       0.06460000       1.93390000
