19
Properties=species:S:1:pos:R:3 gdb_80997=T pbc="F F F"
C       -0.11650000       1.52520000      -0.03440000
C       -0.03990000       0.00620000      -0.02540000
C        1.22400000      -0.58860000      -0.70740000
O        1.97320000      -0.35070000       0.52470000
C        0.68940000      -0.64380000       1.19520000
C        0.58970000      -0.14290000       2.60750000
C        0.56980000      -2.15920000       0.91880000
C        0.96670000      -2.09590000      -0.57390000
O        1.04320000      -2.96980000      -1.39050000
H        0.85340000       1.96540000       0.21030000
H       -0.42120000       1.88980000      -1.02040000
H       -0.85280000       1.88460000       0.69240000
H       -0.99930000      -0.44520000      -0.30290000
H        1.67890000      -0.20000000      -1.61660000
H        0.72680000       0.94040000       2.65410000
H       -0.38990000      -0.38990000       3.02970000
H        1.35670000      -0.61350000       3.23070000
H        1.28860000      -2.73960000       1.50340000
H       -0.42870000      -2.58380000       1.05690000
