17
Properties=species:S:1:pos:R:3 gdb_67999=T pbc="F F F"
C        0.01580000       1.43960000       0.00530000
C       -0.04040000      -0.05860000      -0.01030000
O        0.88260000      -0.62880000      -0.94050000
C        0.43020000      -1.86980000      -1.31290000
O        0.95420000      -2.52130000      -2.16680000
C       -0.71870000      -2.21480000      -0.38040000
C       -0.07970000      -2.32340000       1.05590000
C       -0.36730000      -0.83840000       1.25230000
C       -1.30630000      -0.84280000       0.03290000
H        0.99810000       1.78950000       0.33670000
H       -0.17270000       1.84160000      -0.99440000
H       -0.73910000       1.83890000       0.68850000
H       -1.34640000      -3.03020000      -0.72570000
H       -0.71520000      -2.93600000       1.69820000
H        0.95550000      -2.67180000       1.12610000
H       -0.48140000      -0.32860000       2.20200000
H       -2.30860000      -0.46390000      -0.11750000
