21
Properties=species:S:1:pos:R:3 gdb_58938=T pbc="F F F"
C        0.07860000       1.43630000      -0.21620000
C       -0.05310000      -0.05130000       0.12480000
O        0.57410000      -0.34770000       1.37390000
C       -1.48280000      -0.51850000       0.09240000
C       -2.61160000      -0.13320000       1.05530000
C       -3.38790000      -1.33820000       0.45750000
C       -3.66520000      -0.91350000      -1.01100000
C       -2.15370000      -1.00420000      -1.20770000
C       -2.00060000      -1.93220000      -0.02410000
H        1.12650000       1.74400000      -0.16680000
H       -0.30540000       1.64600000      -1.21930000
H       -0.49200000       2.04830000       0.49310000
H        0.51780000      -0.63640000      -0.60750000
H        0.13110000       0.17570000       2.05050000
H       -2.32040000      -0.32300000       2.09360000
H       -3.07670000       0.85740000       0.97700000
H       -4.14350000      -1.85780000       1.04280000
H       -4.18200000      -1.69990000      -1.56850000
H       -4.17050000       0.04620000      -1.17410000
H       -1.59870000      -1.02300000      -2.13780000
H       -1.50970000      -2.88710000       0.09440000
