14
Properties=species:S:1:pos:R:3 gdb_132629=T pbc="F F F"
N       -0.04130000       1.41900000      -0.11520000
C        0.00710000       0.02660000      -0.04670000
C       -1.16410000      -0.73820000       0.00010000
N       -1.15920000      -2.07620000       0.00320000
C       -0.01080000      -2.68280000      -0.03650000
F        0.00730000      -4.03250000      -0.03080000
C        1.23300000      -2.04210000      -0.08100000
O        2.39450000      -2.73960000      -0.11550000
C        1.23150000      -0.65760000      -0.08610000
H        0.77160000       1.89090000       0.25370000
H       -0.89360000       1.82600000       0.24220000
H       -2.13680000      -0.25450000       0.03260000
H        2.16910000      -3.67830000      -0.10630000
H        2.17590000      -0.12540000      -0.12610000
