19
Properties=species:S:1:pos:R:3 gdb_52861=T pbc="F F F"
C       -0.08030000       1.46080000      -0.06020000
C       -0.03600000       0.00590000      -0.03950000
C        0.00820000      -1.19770000      -0.02780000
C        0.05670000      -2.64010000      -0.01050000
C       -0.42310000      -3.34990000       1.26460000
C       -1.28100000      -3.39330000       0.04340000
C        1.13630000      -3.25260000      -0.74710000
C        2.03570000      -3.76780000      -1.36050000
C        3.12640000      -4.38040000      -2.10500000
H        0.74390000       1.86980000      -0.65530000
H       -1.01580000       1.82840000      -0.49670000
H        0.00250000       1.88000000       0.94900000
H        0.12030000      -4.24320000       1.54760000
H       -0.72210000      -2.70860000       2.08480000
H       -2.17500000      -2.78220000       0.01680000
H       -1.33250000      -4.31680000      -0.52040000
H        2.75250000      -5.04640000      -2.89090000
H        3.74840000      -3.61830000      -2.58760000
H        3.77760000      -4.97140000      -1.45110000
