11
Properties=species:S:1:pos:R:3 gdb_4250=T pbc="F F F"
N       -0.08920000       1.28180000       0.37680000
C       -0.01080000       0.09900000      -0.05040000
N       -1.16290000      -0.67030000      -0.21220000
C       -1.10510000      -1.94110000      -0.66860000
N       -0.02870000      -2.56850000      -0.99520000
C        1.17330000      -1.89140000      -0.87100000
O        2.25030000      -2.32410000      -1.12860000
O        1.13110000      -0.54830000      -0.39030000
H        0.83370000       1.70660000       0.43840000
H       -2.03460000      -0.22450000       0.03010000
H       -2.06390000      -2.44820000      -0.75600000
