22
Properties=species:S:1:pos:R:3 gdb_123103=T pbc="F F F"
C       -0.02020000       1.42850000      -0.19720000
C       -0.07770000      -0.08860000      -0.14650000
O       -1.41910000      -0.48430000       0.06750000
C       -1.59420000      -1.88630000       0.13140000
C       -3.08180000      -2.15790000       0.29550000
N       -3.83620000      -1.59390000      -0.80590000
C       -4.73970000      -2.31350000      -1.53180000
C       -5.40970000      -1.54990000      -2.66490000
O       -5.00540000      -3.47880000      -1.29260000
H        1.00770000       1.76540000      -0.36050000
H       -0.64260000       1.81080000      -1.01150000
H       -0.38160000       1.85810000       0.74130000
H        0.29970000      -0.52430000      -1.08680000
H        0.56190000      -0.47340000       0.66520000
H       -1.22010000      -2.36230000      -0.78970000
H       -1.03590000      -2.31110000       0.98170000
H       -3.28280000      -3.23110000       0.30820000
H       -3.41960000      -1.73410000       1.25050000
H       -3.61860000      -0.64480000      -1.06090000
H       -5.29890000      -2.12420000      -3.58790000
H       -6.48030000      -1.47540000      -2.45410000
H       -5.00870000      -0.54430000      -2.81590000
