15
Properties=species:S:1:pos:R:3 gdb_49140=T pbc="F F F"
O       -0.09400000      -0.03840000       0.09690000
C       -0.02740000       1.16690000       0.02020000
C        1.23960000       1.90960000       0.02430000
C        1.36010000       3.23530000      -0.08660000
C        2.82130000       3.63370000      -0.07810000
N        3.48980000       2.39680000       0.34540000
C        2.59010000       1.25060000       0.12480000
C        3.23660000       4.12030000      -1.41470000
N        3.59270000       4.47870000      -2.45470000
H       -0.93930000       1.79680000      -0.06110000
H        0.55950000       3.95510000      -0.20040000
H        3.01810000       4.44850000       0.63320000
H        4.40180000       2.28090000      -0.07550000
H        2.64230000       0.54540000       0.96160000
H        2.80390000       0.67870000      -0.79160000
