17
Properties=species:S:1:pos:R:3 gdb_41287=T pbc="F F F"
C        0.09550000       1.50130000      -0.17600000
O        1.54800000       1.53130000       0.03930000
C        1.52570000       0.22530000       0.61470000
C        1.80630000      -0.33200000       1.99850000
C        1.00100000      -1.54900000       1.42550000
C       -0.44320000      -0.96000000       1.27740000
C        0.05030000       0.02360000       0.21480000
O        0.43360000      -0.87280000      -0.88450000
C        1.55720000      -1.16000000      -0.05480000
H       -0.41780000       2.18500000       0.51020000
H       -0.16710000       1.72380000      -1.21290000
H        2.86140000      -0.57040000       2.15930000
H        1.39530000       0.17630000       2.87470000
H        1.13760000      -2.54800000       1.83290000
H       -1.18930000      -1.65950000       0.89750000
H       -0.79420000      -0.50060000       2.20420000
H        2.37080000      -1.72930000      -0.50590000
