14
Properties=species:S:1:pos:R:3 gdb_4439=T pbc="F F F"
C        0.09330000       1.48860000      -0.02360000
C       -0.05320000       0.01730000      -0.00600000
C       -1.10350000      -0.80290000       0.09410000
O       -2.41140000      -0.52000000       0.29530000
N       -0.64520000      -2.12560000      -0.03370000
C        0.74130000      -2.09590000      -0.09220000
N        1.51040000      -3.10120000      -0.10640000
O        1.10150000      -0.76650000      -0.13220000
H        0.71960000       1.84110000       0.80440000
H        0.55450000       1.83710000      -0.95530000
H       -0.89270000       1.94950000       0.07060000
H       -2.92920000      -0.85090000      -0.45020000
H       -1.11120000      -2.91780000       0.37810000
H        2.48240000      -2.80450000      -0.14000000
