14
Properties=species:S:1:pos:R:3 gdb_16639=T pbc="F F F"
O        0.16180000       1.30090000       0.39390000
C       -0.05200000      -0.05910000       0.09070000
C       -1.49990000      -0.43720000      -0.09120000
C       -2.24120000       0.21310000      -1.24470000
C       -1.56410000      -1.10720000      -1.43900000
O       -0.28610000      -1.06370000      -2.06290000
C        0.58760000      -0.39280000      -1.27290000
O        1.68500000      -0.06530000      -1.62340000
H        1.06330000       1.50290000       0.10820000
H        0.41140000      -0.71120000       0.84880000
H       -2.05940000      -0.81910000       0.75230000
H       -3.32370000       0.22010000      -1.18990000
H       -1.79920000       1.08680000      -1.71130000
H       -2.09200000      -2.02670000      -1.65180000
