13
Properties=species:S:1:pos:R:3 gdb_129437=T pbc="F F F"
N       -0.06560000       1.32960000       0.00840000
C        0.05930000      -0.01630000       0.00330000
O        1.11070000      -0.62940000      -0.00720000
C       -1.26310000      -0.75050000       0.01120000
C       -1.28670000      -2.14800000       0.00710000
N       -2.43180000      -2.82440000       0.01380000
N       -3.57390000      -2.13770000       0.02470000
C       -3.50840000      -0.80740000       0.02830000
N       -2.39850000      -0.06190000       0.02210000
H        0.76280000       1.89980000       0.00300000
H       -0.98190000       1.74740000       0.01640000
H       -0.36620000      -2.71940000      -0.00170000
H       -4.46140000      -0.28690000       0.03730000
