18
Properties=species:S:1:pos:R:3 gdb_97070=T pbc="F F F"
C       -0.17190000       1.44520000      -0.08720000
N       -0.13530000      -0.00590000      -0.09740000
C        0.62730000      -0.60570000      -0.91580000
O        1.39450000       0.06640000      -1.83180000
C        2.51340000      -0.62630000      -2.38610000
C        2.12410000      -1.99030000      -2.95240000
O        3.34900000      -2.63660000      -3.27320000
C        1.32480000      -2.73200000      -1.91200000
C        0.66080000      -2.07170000      -0.96120000
H        0.74320000       1.91710000      -0.46210000
H       -1.00840000       1.79850000      -0.70490000
H       -0.36440000       1.78550000       0.93490000
H        2.91700000       0.02520000      -3.16300000
H        3.28490000      -0.78270000      -1.62150000
H        1.51350000      -1.84930000      -3.86010000
H        3.14780000      -3.44990000      -3.74610000
H        1.30710000      -3.81770000      -1.96420000
H        0.07520000      -2.56710000      -0.19640000
