18
Properties=species:S:1:pos:R:3 gdb_15684=T pbc="F F F"
C        0.08030000       1.56390000      -0.01870000
C        0.15940000       0.03700000       0.01580000
C        0.57710000      -0.55850000      -1.33690000
O        1.87220000      -0.14270000      -1.75700000
C        2.82130000      -1.15900000      -1.41810000
C        2.07940000      -2.48510000      -1.59520000
C        0.63610000      -2.09060000      -1.28140000
O       -0.28290000      -2.82000000      -1.01800000
H        1.03980000       1.99110000      -0.32280000
H       -0.67870000       1.90310000      -0.73250000
H       -0.18000000       1.96690000       0.96450000
H        0.87240000      -0.28480000       0.78580000
H       -0.80780000      -0.40370000       0.28250000
H       -0.13940000      -0.24660000      -2.10790000
H        3.68030000      -1.03590000      -2.08100000
H        3.16880000      -1.03980000      -0.38060000
H        2.11860000      -2.82540000      -2.63680000
H        2.41820000      -3.30260000      -0.95650000
