18
Properties=species:S:1:pos:R:3 gdb_126899=T pbc="F F F"
C       -0.16870000       1.48760000      -0.00620000
C        0.14350000      -0.00220000      -0.08740000
N        0.64070000      -0.48900000       1.19740000
C        0.81350000      -1.81210000       1.44830000
C        1.47800000      -2.45530000       2.48020000
C        2.25030000      -1.89870000       3.62870000
N        1.28370000      -3.78650000       2.26170000
N        0.60210000      -4.03730000       1.24690000
O        0.25590000      -2.69840000       0.64690000
H        0.72910000       2.06920000       0.23300000
H       -0.54710000       1.84640000      -0.96680000
H       -0.92180000       1.68910000       0.76090000
H       -0.75810000      -0.57080000      -0.33030000
H        0.86820000      -0.19710000      -0.89170000
H        1.27110000       0.12430000       1.69150000
H        1.62480000      -1.30000000       4.30240000
H        2.67240000      -2.72100000       4.21000000
H        3.08360000      -1.26340000       3.30160000
