16
Properties=species:S:1:pos:R:3 gdb_117022=T pbc="F F F"
C       -1.19020000       0.64770000       0.91370000
C       -0.03570000      -0.07190000       0.24480000
O        0.43840000      -1.07870000       1.15920000
C        1.46480000      -1.82450000       0.74120000
N        2.03050000      -1.69960000      -0.38490000
C        1.89270000      -2.85940000       1.77770000
O        2.81480000      -3.60610000       1.53080000
C        1.17020000      -2.90530000       3.02640000
C        0.59100000      -2.97330000       4.07930000
H       -0.86750000       1.12260000       1.84440000
H       -1.57810000       1.42310000       0.24670000
H       -2.00230000      -0.04730000       1.14440000
H       -0.33440000      -0.56000000      -0.68880000
H        0.79340000       0.60270000       0.00680000
H        2.78110000      -2.39070000      -0.44640000
H        0.07790000      -3.03190000       5.00860000
