15
Properties=species:S:1:pos:R:3 gdb_49374=T pbc="F F F"
N       -0.04450000       1.26320000      -0.26070000
C       -0.12380000      -0.00680000      -0.28970000
N       -1.31770000      -0.64260000      -0.04290000
C       -1.67610000      -2.06310000       0.05010000
C       -3.14790000      -1.60160000       0.34770000
C       -2.61530000      -0.17320000       0.26440000
N       -3.13340000       0.95880000       0.42050000
C       -1.46510000      -2.84010000      -1.17130000
N       -1.28520000      -3.45810000      -2.13080000
H        0.90250000       1.56900000      -0.47250000
H        0.69120000      -0.70710000      -0.50700000
H       -1.19760000      -2.58010000       0.88870000
H       -3.86610000      -1.86460000      -0.42910000
H       -3.52640000      -1.90390000       1.32420000
H       -2.43720000       1.69390000       0.28390000
