17
Properties=species:S:1:pos:R:3 gdb_112330=T pbc="F F F"
O        0.03310000       1.39700000      -0.11620000
C        0.06260000      -0.01410000      -0.12450000
C       -1.31090000      -0.60660000       0.16650000
O       -2.22110000      -0.18110000      -0.86730000
C       -3.02080000      -1.22750000      -1.27320000
N       -3.99580000      -1.13210000      -2.06130000
N       -2.60510000      -2.45560000      -0.68130000
C       -1.23960000      -2.83160000      -1.13180000
C       -1.43610000      -2.12010000       0.15200000
H       -0.62110000       1.66750000      -0.77040000
H        0.43650000      -0.41090000      -1.08050000
H        0.76120000      -0.32090000       0.66130000
H       -1.67320000      -0.20680000       1.12200000
H       -4.12360000      -0.16300000      -2.35070000
H       -1.05500000      -3.90030000      -1.13210000
H       -0.82660000      -2.29040000      -1.97770000
H       -1.34800000      -2.65000000       1.09420000
