16
Properties=species:S:1:pos:R:3 gdb_35097=T pbc="F F F"
N       -0.20070000      -1.16100000      -0.37590000
C       -0.11660000      -0.02180000      -0.20070000
C       -0.03050000       1.43870000      -0.01300000
C       -0.72210000       1.89890000       1.25670000
C       -0.32800000       1.53120000       2.48940000
C        0.86740000       0.80140000       2.83060000
C        2.03780000       0.82110000       2.14090000
C        2.29990000       1.57540000       0.94070000
C        1.40330000       1.93460000       0.00420000
H       -0.54380000       1.88290000      -0.87130000
H       -1.59150000       2.53630000       1.13340000
H       -0.95890000       1.82640000       3.32530000
H        0.85830000       0.28610000       3.78740000
H        2.89190000       0.32030000       2.58890000
H        3.32910000       1.89850000       0.79830000
H        1.70050000       2.59160000      -0.80660000
