21
Properties=species:S:1:pos:R:3 gdb_122845=T pbc="F F F"
C        0.24620000       1.37680000       0.22350000
N       -0.11440000       0.02150000      -0.15170000
C        0.60760000      -0.63160000      -1.13400000
O        1.42580000      -0.06930000      -1.84270000
N        0.31100000      -1.97720000      -1.23820000
C        0.82980000      -2.77000000      -2.34040000
C        1.24160000      -4.17100000      -1.88530000
C        1.78800000      -5.01640000      -3.02820000
O        2.08820000      -6.30370000      -2.51080000
H        1.01900000       1.41390000       1.00360000
H        0.63690000       1.87560000      -0.66340000
H       -0.63850000       1.91230000       0.58000000
H       -0.52070000      -0.55040000       0.57210000
H       -0.54790000      -2.29710000      -0.81830000
H        0.09170000      -2.84160000      -3.15440000
H        1.68370000      -2.21450000      -2.73500000
H        1.99870000      -4.09450000      -1.09780000
H        0.38290000      -4.69830000      -1.44950000
H        1.04200000      -5.07710000      -3.83820000
H        2.68530000      -4.53510000      -3.45010000
H        2.45880000      -6.83410000      -3.22190000
