17
Properties=species:S:1:pos:R:3 gdb_34518=T pbc="F F F"
C        0.08430000      -1.17830000      -0.05170000
C       -0.01770000       0.02240000      -0.02050000
C       -0.07190000       1.43890000       0.02100000
C       -1.21460000       2.14610000       0.04810000
C       -1.07290000       3.65040000       0.07300000
C       -0.09180000       4.05600000       1.20070000
C        0.94080000       3.71900000       0.10240000
C        1.24410000       2.21660000       0.02750000
O       -0.05970000       4.03500000      -0.90920000
H        0.15490000      -2.23720000      -0.08210000
H       -2.18900000       1.67180000       0.05760000
H       -2.01020000       4.19230000      -0.06140000
H       -0.12080000       5.12760000       1.40420000
H       -0.09750000       3.47810000       2.12650000
H        1.83790000       4.33600000       0.00680000
H        1.86660000       1.90140000       0.87400000
H        1.81170000       1.99200000      -0.88320000
