16
Properties=species:S:1:pos:R:3 gdb_47250=T pbc="F F F"
N       -0.22660000       1.32970000      -0.45420000
C       -0.04480000       0.16100000       0.01730000
N        1.16460000      -0.31440000       0.52710000
C        1.60350000      -1.57930000       0.94660000
N        1.01710000      -2.67300000       1.18260000
C       -0.40600000      -2.90180000       1.08600000
C       -1.34230000      -1.68700000       1.27120000
C       -1.25870000      -0.76260000       0.08020000
O       -2.08570000      -0.73740000      -0.79490000
H        0.62580000       1.89580000      -0.42350000
H        1.91480000       0.36060000       0.46730000
H        2.68630000      -1.55390000       1.08770000
H       -0.62030000      -3.37990000       0.11980000
H       -0.66300000      -3.64530000       1.84850000
H       -2.37490000      -2.03650000       1.34480000
H       -1.07540000      -1.16130000       2.19510000
