20
Properties=species:S:1:pos:R:3 gdb_64239=T pbc="F F F"
C       -0.22360000       1.49610000       0.15250000
C        0.01080000      -0.00670000       0.06370000
C       -1.27090000      -0.77660000      -0.20860000
O        1.02570000      -0.30940000      -0.94270000
C        1.99230000      -0.68610000       0.05060000
C        0.93860000      -0.61340000       1.17060000
N        1.25210000       0.14550000       2.35130000
C        0.92240000      -0.26050000       3.61170000
O        0.33900000      -1.28590000       3.88670000
H        0.71470000       2.04230000       0.29180000
H       -0.67780000       1.85410000      -0.77630000
H       -0.89420000       1.74150000       0.98210000
H       -1.73040000      -0.43860000      -1.14310000
H       -1.06520000      -1.84680000      -0.29660000
H       -1.99030000      -0.62660000       0.60340000
H        2.43770000      -1.66720000      -0.14750000
H        2.80110000       0.05370000       0.14910000
H        0.58650000      -1.58620000       1.51240000
H        1.72630000       1.02940000       2.25210000
H        1.26070000       0.46720000       4.37560000
