19
Properties=species:S:1:pos:R:3 gdb_70988=T pbc="F F F"
C       -0.00220000       1.58360000      -0.07030000
C       -0.06760000       0.08680000       0.03540000
O        0.96830000      -0.63310000      -0.80770000
C        0.58450000      -1.75560000       0.10880000
C        1.15190000      -2.82510000       1.07640000
C        0.31760000      -2.01380000       2.18240000
C        0.52560000      -0.77560000       1.23820000
C       -0.88870000      -1.95070000      -0.29940000
C       -1.33100000      -0.69540000      -0.34120000
H        0.98240000       1.95080000       0.22980000
H       -0.18900000       1.90440000      -1.10010000
H       -0.75880000       2.04030000       0.57580000
H        0.89060000      -3.87220000       0.89790000
H        2.22470000      -2.73190000       1.25460000
H       -0.71160000      -2.37310000       2.23590000
H        0.74800000      -1.95220000       3.18390000
H        1.52990000      -0.38500000       1.43070000
H       -1.38550000      -2.89110000      -0.49270000
H       -2.29690000      -0.27980000      -0.59030000
