20
Properties=species:S:1:pos:R:3 gdb_90386=T pbc="F F F"
C       -0.28500000       1.56590000      -0.06730000
C       -0.00030000       0.07180000       0.02160000
C        1.10250000      -0.60800000      -0.83570000
N        1.67490000      -1.32080000       0.36550000
C        2.17970000      -0.24940000       1.27640000
C        2.85190000       0.93180000       0.81260000
C        3.48110000       1.89400000       0.45580000
C        0.71390000      -0.53140000       1.23930000
C        0.00430000      -1.12860000       2.42060000
H        0.62290000       2.15890000       0.05730000
H       -0.72380000       1.81450000      -1.04000000
H       -1.00160000       1.87190000       0.70320000
H       -0.93790000      -0.47840000      -0.11530000
H        0.73320000      -1.33930000      -1.55650000
H        1.81830000       0.05610000      -1.32800000
H        2.67770000      -0.70390000       2.13090000
H        4.02290000       2.75110000       0.14000000
H       -0.39460000      -0.34250000       3.07240000
H       -0.83340000      -1.75480000       2.09480000
H        0.68100000      -1.75010000       3.01410000
