17
Properties=species:S:1:pos:R:3 gdb_37637=T pbc="F F F"
C       -0.02180000       1.55680000       0.10640000
O        1.28990000       2.10430000      -0.06180000
C        2.16040000       1.19530000      -0.69530000
C        1.63330000       0.50130000      -1.94970000
C        1.90940000      -0.87250000      -1.35470000
C        0.49700000      -0.36790000      -1.43590000
C        0.04450000       0.03030000      -0.01640000
O        1.11510000      -0.40190000       0.83820000
C        2.24860000      -0.22640000       0.00240000
H       -0.37160000       1.85360000       1.10040000
H       -0.71050000       1.97100000      -0.64670000
H        3.12430000       1.69240000      -0.81050000
H        1.70400000       0.84030000      -2.97580000
H        2.28680000      -1.77890000      -1.80550000
H       -0.20380000      -0.78900000      -2.14420000
H       -0.88380000      -0.44840000       0.30280000
H        3.15380000      -0.48950000       0.54610000
