12
Properties=species:S:1:pos:R:3 gdb_5429=T pbc="F F F"
N        0.09360000       1.35530000       0.18240000
C       -0.04180000       0.00480000       0.06080000
C       -1.11020000      -0.86940000       0.01650000
C       -2.51820000      -0.53080000       0.00840000
O       -3.44560000      -1.30700000      -0.03220000
N       -0.59410000      -2.17260000      -0.03240000
C        0.67440000      -2.02850000      -0.01960000
O        1.10140000      -0.71260000       0.03800000
H        0.96380000       1.74050000      -0.15370000
H       -0.71920000       1.90400000      -0.05060000
H       -2.70220000       0.57270000       0.04250000
H        1.45490000      -2.77130000      -0.04840000
