17
Properties=species:S:1:pos:R:3 gdb_5065=T pbc="F F F"
C       -0.04720000       1.51510000       0.10020000
C       -0.01010000       0.02890000      -0.00220000
C       -0.03480000      -0.77510000      -1.12570000
N       -0.12950000      -0.29800000      -2.46620000
C        0.01380000      -2.13850000      -0.68930000
N       -0.08020000      -3.24520000      -1.56160000
C        0.06880000      -2.12590000       0.68470000
N        0.05430000      -0.80090000       1.08580000
H        0.90600000       1.94260000       0.43900000
H       -0.26540000       1.92560000      -0.88860000
H       -0.82400000       1.86070000       0.79350000
H        0.76870000      -0.30770000      -2.94180000
H       -0.75440000      -0.88750000      -3.00820000
H        0.54480000      -3.14540000      -2.35450000
H        0.13910000      -4.11710000      -1.09550000
H        0.10460000      -2.92930000       1.40240000
H        0.08600000      -0.49170000       2.04020000
