12
Properties=species:S:1:pos:R:3 gdb_130784=T pbc="F F F"
O       -0.04630000      -0.00730000      -0.47420000
C       -0.04550000       1.16590000      -0.23190000
O       -1.12790000       1.99230000      -0.17950000
N       -0.72290000       3.31600000       0.13630000
C        0.55740000       3.25070000       0.25740000
N        1.04650000       1.98890000       0.04980000
C        2.40690000       1.49320000       0.07140000
C        3.09100000       1.77900000       1.33670000
N        3.63710000       2.03200000       2.32180000
H        1.17100000       4.10330000       0.50830000
H        2.33400000       0.41130000      -0.08400000
H        2.99290000       1.91210000      -0.75450000
