27
Properties=species:S:1:pos:R:3 gdb_118571=T pbc="F F F"
C       -0.92580000       1.18880000       0.18700000
C       -0.58950000      -0.30510000       0.21690000
C        0.40950000      -0.66960000       1.32230000
C        0.79560000      -2.16330000       1.38520000
C        1.75930000      -2.53870000       0.23920000
C        1.86760000      -4.04180000      -0.03740000
C        1.40220000      -2.52450000       2.75550000
C        0.37960000      -2.66720000       3.87720000
O        1.08530000      -2.98550000       5.06880000
H       -0.02910000       1.79250000       0.00820000
H       -1.64640000       1.42140000      -0.60350000
H       -1.35830000       1.51710000       1.13890000
H       -1.51120000      -0.88450000       0.36230000
H       -0.19700000      -0.60460000      -0.76250000
H        1.32590000      -0.07400000       1.19970000
H       -0.01830000      -0.35950000       2.28410000
H       -0.12430000      -2.75480000       1.25300000
H        1.43770000      -2.04020000      -0.68230000
H        2.75350000      -2.13160000       0.47010000
H        2.22340000      -4.59830000       0.83530000
H        0.89490000      -4.45950000      -0.32110000
H        2.56520000      -4.24030000      -0.85730000
H        1.94940000      -3.47130000       2.69540000
H        2.13710000      -1.76270000       3.04640000
H       -0.19730000      -1.73710000       3.99980000
H       -0.33990000      -3.46180000       3.61740000
H        0.44670000      -3.06550000       5.78310000
