19
Properties=species:S:1:pos:R:3 gdb_62890=T pbc="F F F"
C       -0.08470000       1.57460000       0.00660000
C       -0.04090000       0.05740000       0.01470000
O       -1.30930000      -0.50110000      -0.22710000
C        1.19380000      -0.65940000      -0.65250000
N        2.01080000      -0.11060000       0.51480000
C        0.74020000      -0.67300000       1.14620000
C        0.85520000      -1.88890000       0.20590000
C        0.20110000      -3.18160000       0.01690000
N        1.63180000      -3.09160000       0.44830000
H        0.89540000       1.99550000       0.22580000
H       -0.40720000       1.93860000      -0.97800000
H       -0.80760000       1.93040000       0.74790000
H       -1.75540000       0.04810000      -0.87890000
H        1.54900000      -0.60550000      -1.68440000
H        2.76760000      -0.77040000       0.71160000
H        0.56400000      -0.64360000       2.22200000
H       -0.47590000      -3.57280000       0.77050000
H       -0.01240000      -3.50950000      -0.99730000
H        2.23890000      -3.29450000      -0.34330000
