21
Properties=species:S:1:pos:R:3 gdb_109897=T pbc="F F F"
C       -0.31940000       1.60770000      -0.01070000
O       -0.13660000       0.25100000       0.33290000
C       -1.26930000      -0.55350000       0.12830000
C       -1.46150000      -1.25160000      -1.27850000
C       -0.46160000      -0.95870000      -2.38710000
C       -1.34050000      -2.62900000      -0.57130000
O        0.00600000      -3.13900000      -0.53610000
C        0.23770000      -2.56390000       0.77510000
C       -1.16580000      -1.93710000       0.81100000
H        0.61260000       2.12830000       0.22240000
H       -0.54060000       1.74260000      -1.07840000
H       -1.13630000       2.06180000       0.57150000
H       -2.17320000      -0.00840000       0.43670000
H       -2.48580000      -1.09700000      -1.63610000
H        0.56330000      -1.06660000      -2.02850000
H       -0.59900000      -1.65580000      -3.22060000
H       -0.58750000       0.05560000      -2.77870000
H       -2.07230000      -3.40530000      -0.81060000
H        0.39960000      -3.34860000       1.52410000
H        1.07840000      -1.86430000       0.78630000
H       -1.78130000      -2.11650000       1.69110000
