19
Properties=species:S:1:pos:R:3 gdb_31794=T pbc="F F F"
C       -0.07060000       1.52900000       0.05840000
C       -0.00910000       0.02220000      -0.00190000
C       -0.20860000      -0.65900000      -1.20630000
C       -0.11740000      -2.04500000      -1.26930000
C        0.16360000      -2.79590000      -0.12660000
C        0.20560000      -4.30400000      -0.19900000
O        0.99750000      -4.81310000       0.86270000
C        0.36060000      -2.12390000       1.07970000
C        0.27630000      -0.73570000       1.13620000
H        0.90230000       1.97830000      -0.17710000
H       -0.79270000       1.92960000      -0.65960000
H       -0.35480000       1.87740000       1.05570000
H       -0.43100000      -0.09580000      -2.10830000
H       -0.26830000      -2.54900000      -2.22050000
H       -0.82230000      -4.70050000      -0.13980000
H        0.60600000      -4.61050000      -1.17880000
H        0.87170000      -5.76540000       0.89720000
H        0.58740000      -2.69730000       1.97020000
H        0.43470000      -0.23100000       2.08530000
