16
Properties=species:S:1:pos:R:3 gdb_16877=T pbc="F F F"
O       -0.00880000      -0.04360000      -0.23040000
C       -0.04000000       1.15850000      -0.05980000
C       -1.34050000       1.95660000       0.04600000
N       -1.17410000       3.05950000       0.99080000
C       -0.16480000       3.99710000       0.57760000
C        1.08920000       4.10360000       1.41970000
C        1.10430000       3.34910000       0.10490000
N        1.09070000       1.92040000       0.07020000
H       -1.62990000       2.27390000      -0.97280000
H       -2.10510000       1.26700000       0.40780000
H       -2.05240000       3.51580000       1.19900000
H       -0.48730000       4.88400000       0.03180000
H        1.61490000       5.05120000       1.46300000
H        1.09690000       3.51020000       2.32590000
H        1.62270000       3.81820000      -0.72770000
H        1.96260000       1.41100000       0.05400000
