21
Properties=species:S:1:pos:R:3 gdb_106461=T pbc="F F F"
C       -1.29960000      -0.87810000       0.28540000
C        0.03870000      -0.16230000       0.08160000
C        0.83590000      -0.67360000      -1.09220000
C        1.12960000      -2.17930000      -1.41300000
C        1.23280000      -1.50450000      -2.80880000
O        0.14630000      -0.61050000      -2.39490000
C        2.46470000      -0.60350000      -2.62930000
C        2.20740000      -0.02600000      -1.45270000
C        2.95570000       0.96740000      -0.63560000
H       -1.89320000      -0.84410000      -0.63180000
H       -1.15390000      -1.92940000       0.55310000
H       -1.87440000      -0.40690000       1.08800000
H       -0.13680000       0.91010000      -0.07360000
H        0.65820000      -0.24580000       0.98380000
H        2.02160000      -2.64380000      -0.98660000
H        0.24620000      -2.81460000      -1.31230000
H        1.05940000      -2.02270000      -3.75080000
H        3.30510000      -0.49200000      -3.29930000
H        3.89010000       1.25870000      -1.12340000
H        2.36480000       1.87650000      -0.46640000
H        3.20350000       0.56920000       0.35690000
