15
Properties=species:S:1:pos:R:3 gdb_133203=T pbc="F F F"
C        0.14160000       1.43460000       0.00340000
C        0.00930000      -0.05620000       0.01100000
N       -0.05190000      -0.66250000      -1.13860000
N       -0.17090000      -2.00340000      -1.14000000
C       -0.23190000      -2.77150000      -0.01400000
C       -0.17080000      -2.17030000       1.19240000
F       -0.22820000      -2.89720000       2.31240000
C       -0.04260000      -0.73550000       1.32090000
N        0.02470000      -0.05550000       2.41420000
H        1.04840000       1.73530000       0.53790000
H        0.16850000       1.80790000      -1.02110000
H       -0.69160000       1.88980000       0.54840000
H       -0.21340000      -2.41680000      -2.05540000
H       -0.32780000      -3.84200000      -0.14270000
H       -0.02610000      -0.68610000       3.21660000
