19
Properties=species:S:1:pos:R:3 gdb_94475=T pbc="F F F"
O        0.11980000       0.89890000      -0.72500000
C        0.13910000      -0.24230000       0.09150000
C       -0.01740000       0.00360000       1.62470000
N       -1.14290000      -0.95850000       1.59920000
C       -1.19070000      -0.97980000       0.20400000
N       -1.99790000      -1.33050000      -0.70130000
C       -3.26880000      -1.87630000      -0.35780000
C       -4.43120000      -1.54830000      -1.26800000
C       -3.83700000      -2.93060000      -1.28070000
H       -0.55880000       0.73950000      -1.39260000
H        0.99030000      -0.89180000      -0.15030000
H        0.81090000      -0.29700000       2.27130000
H       -0.30920000       1.03820000       1.82960000
H       -1.94430000      -0.92440000       2.21330000
H       -3.50370000      -1.99440000       0.70060000
H       -5.40700000      -1.40280000      -0.81770000
H       -4.21310000      -0.89980000      -2.10820000
H       -3.22040000      -3.20520000      -2.12830000
H       -4.39950000      -3.74550000      -0.83880000
