24
Properties=species:S:1:pos:R:3 gdb_59460=T pbc="F F F"
C       -1.57270000      -0.47940000       0.70110000
C       -0.33940000       0.41660000       0.55770000
O       -0.70770000       1.79740000       0.59320000
C        0.69390000       0.08700000       1.61940000
C        1.67810000      -1.01590000       1.41530000
N        2.12570000       0.36430000       1.52040000
C        2.71240000       0.99640000       0.33300000
C        2.58200000       2.51590000       0.45380000
C        4.17530000       0.55600000       0.23560000
H       -2.00790000      -0.38230000       1.70340000
H       -2.33260000      -0.19010000      -0.02960000
H       -1.31760000      -1.53250000       0.54880000
H        0.08880000       0.27480000      -0.43930000
H       -1.04630000       1.98680000       1.47580000
H        0.30720000       0.23620000       2.63120000
H        1.95130000      -1.68450000       2.22790000
H        1.69030000      -1.47930000       0.42730000
H        2.20120000       0.67130000      -0.59020000
H        3.09030000       2.86590000       1.35830000
H        3.03830000       3.00860000      -0.41070000
H        1.53070000       2.80760000       0.50580000
H        4.25690000      -0.53170000       0.14160000
H        4.65560000       1.00900000      -0.63720000
H        4.72380000       0.86030000       1.13260000
