19
Properties=species:S:1:pos:R:3 gdb_91206=T pbc="F F F"
C        0.34380000       1.58500000      -0.26510000
C        0.05150000       0.10940000      -0.02520000
C        0.73330000      -0.96330000      -0.93050000
C        1.37770000      -1.63080000       0.30120000
C        2.73920000      -0.99910000       0.70630000
C        1.99140000      -0.17120000       1.76260000
O        2.31600000       0.29380000       2.82310000
C        0.61120000      -0.56830000       1.26070000
O       -0.34860000      -0.79050000       2.23370000
H        1.42000000       1.78320000      -0.31830000
H       -0.09980000       1.92060000      -1.20870000
H       -0.07110000       2.20200000       0.53870000
H       -1.03010000      -0.05190000       0.00360000
H        0.01490000      -1.59680000      -1.45530000
H        1.44750000      -0.57650000      -1.66380000
H        1.28990000      -2.70720000       0.43700000
H        3.46550000      -1.67750000       1.16240000
H        3.24300000      -0.42620000      -0.07720000
H        0.09300000      -0.76500000       3.09270000
