15
Properties=species:S:1:pos:R:3 gdb_33990=T pbc="F F F"
N       -0.07880000      -1.14120000      -0.08140000
C        0.00240000       0.01160000      -0.02920000
C        0.03920000       1.43200000       0.11680000
O        0.28070000       2.26460000      -1.02660000
C        1.15350000       2.41100000       0.09360000
C        0.44930000       3.30960000       1.12590000
C       -0.70630000       2.27910000       1.14630000
C       -2.16440000       2.38450000       1.33390000
N       -1.29930000       1.78220000       2.37400000
H        2.21050000       2.24000000      -0.07000000
H        0.96040000       3.34690000       2.09020000
H        0.22190000       4.31740000       0.77380000
H       -2.60590000       3.33780000       1.60930000
H       -2.80430000       1.73630000       0.74090000
H       -1.37270000       0.76630000       2.35800000
