20
Properties=species:S:1:pos:R:3 gdb_22313=T pbc="F F F"
C       -0.00850000       1.53890000       0.02410000
C        0.01600000       0.00980000      -0.00670000
C        0.73640000      -0.52230000      -1.25070000
O        0.72320000      -1.93750000      -1.30290000
C        1.41900000      -2.54530000      -0.22560000
C        0.88840000      -2.06900000       1.10850000
C        0.69300000      -0.58210000       1.24540000
N        0.59280000      -2.80390000       2.10890000
O        0.85960000      -4.16510000       1.87660000
H        1.00750000       1.95080000       0.04320000
H       -0.51800000       1.94640000      -0.85540000
H       -0.53090000       1.90620000       0.91320000
H       -1.01460000      -0.36620000      -0.04840000
H        0.24110000      -0.18220000      -2.16550000
H        1.77580000      -0.14570000      -1.26930000
H        1.29020000      -3.62150000      -0.33190000
H        2.49830000      -2.31630000      -0.28820000
H        1.68180000      -0.10930000       1.35650000
H        0.12830000      -0.36670000       2.15660000
H        0.53270000      -4.57280000       2.68510000
