18
Properties=species:S:1:pos:R:3 gdb_36706=T pbc="F F F"
C        0.01510000      -1.18610000      -0.15880000
C       -0.01220000       0.01210000      -0.06830000
C       -0.00940000       1.46520000       0.04110000
C        1.41200000       2.06160000       0.01560000
C        1.42190000       3.57870000       0.14520000
C        2.82530000       4.23340000       0.01550000
N        2.75000000       5.08120000      -1.18720000
C        1.56510000       4.96180000      -1.61560000
O        0.68040000       4.16890000      -0.96410000
H        0.02420000      -2.24470000      -0.23960000
H       -0.59240000       1.90280000      -0.77710000
H       -0.51380000       1.76380000       0.96990000
H        2.00240000       1.64020000       0.83750000
H        1.91430000       1.77660000      -0.91580000
H        0.90440000       3.88490000       1.06090000
H        3.08540000       4.84580000       0.88460000
H        3.61700000       3.48530000      -0.10570000
H        1.16090000       5.45340000      -2.49380000
