21
Properties=species:S:1:pos:R:3 gdb_92651=T pbc="F F F"
C       -0.41120000       1.49140000      -0.12240000
C       -0.06410000       0.00650000      -0.04840000
C        1.18240000      -0.42380000      -0.88480000
C        2.01550000      -0.50370000       0.41020000
O        2.75270000       0.70530000       0.56800000
C        2.82890000       1.11350000       1.90820000
O        1.57350000       1.44880000       2.43170000
C        0.74070000       0.29780000       2.53290000
C        0.69270000      -0.49530000       1.23180000
H        0.45940000       2.11760000       0.08050000
H       -0.79090000       1.73880000      -1.12010000
H       -1.19110000       1.75500000       0.60090000
H       -0.96200000      -0.58150000      -0.26210000
H        1.06010000      -1.40030000      -1.36060000
H        1.55750000       0.29160000      -1.62010000
H        2.68590000      -1.36380000       0.54410000
H        3.29780000       0.32290000       2.52610000
H        3.43940000       2.01820000       1.92930000
H        1.11970000      -0.34980000       3.34200000
H       -0.24980000       0.65660000       2.82860000
H        0.38790000      -1.52300000       1.45420000
