18
Properties=species:S:1:pos:R:3 gdb_94424=T pbc="F F F"
O        0.20410000       1.31440000      -0.20490000
C        0.07370000      -0.06350000       0.01840000
C        0.17880000      -0.53370000       1.48990000
N       -1.30500000      -0.57970000       1.55420000
C       -1.40900000      -0.58910000       0.09380000
C       -2.51980000       0.11100000      -0.73380000
C       -2.51940000      -1.07700000      -1.74500000
C       -1.70750000      -1.86650000      -0.70260000
O       -1.52350000      -3.03030000      -0.47860000
H       -0.31890000       1.77410000       0.46280000
H        0.72550000      -0.55550000      -0.70450000
H        0.67070000      -1.50950000       1.58010000
H        0.64410000       0.17270000       2.18640000
H       -1.69710000      -1.39840000       2.01000000
H       -3.45610000       0.19010000      -0.17680000
H       -2.24150000       1.08990000      -1.12760000
H       -3.47910000      -1.51560000      -2.02660000
H       -1.94380000      -0.87690000      -2.65390000
