21
Properties=species:S:1:pos:R:3 gdb_107877=T pbc="F F F"
C       -0.08990000       1.56900000      -0.00960000
C        0.07410000       0.04410000      -0.01780000
C        0.75580000      -0.47050000      -1.26530000
C        2.18920000      -0.11900000      -1.73010000
C        1.67050000      -1.08470000      -2.80510000
C        0.90380000      -1.96620000      -1.76100000
C       -0.37680000      -1.90830000      -2.62110000
O       -1.65040000      -2.12350000      -2.06970000
C        0.22060000      -0.49200000      -2.75810000
H        0.88090000       2.06860000      -0.08860000
H       -0.70590000       1.90460000      -0.85030000
H       -0.56680000       1.90930000       0.91430000
H        0.66470000      -0.26680000       0.85450000
H       -0.90980000      -0.42650000       0.11390000
H        2.37020000       0.91480000      -2.04330000
H        3.00960000      -0.47670000      -1.09790000
H        2.16940000      -1.45710000      -3.70020000
H        1.32530000      -2.79450000      -1.18760000
H       -0.34600000      -2.51280000      -3.53370000
H       -1.73410000      -1.59780000      -1.26890000
H       -0.13870000       0.36590000      -3.33000000
