18
Properties=species:S:1:pos:R:3 gdb_7698=T pbc="F F F"
C       -0.05990000       1.51070000       0.00610000
C        0.02300000      -0.01050000      -0.00270000
O       -1.27090000      -0.60210000      -0.03920000
C        1.00520000      -0.59190000      -1.08470000
C        1.96770000      -1.30340000      -0.11570000
C        1.03520000      -2.04860000       0.86460000
C        0.76530000      -0.57800000       1.23560000
O        2.15610000      -0.27230000       0.91310000
H        0.93100000       1.94180000       0.16770000
H       -0.44080000       1.88840000      -0.95100000
H       -0.73130000       1.85170000       0.80090000
H       -1.77500000      -0.17510000      -0.73930000
H        0.48930000      -1.27330000      -1.76620000
H        1.51610000       0.18230000      -1.66230000
H        2.89670000      -1.72410000      -0.50030000
H        0.21550000      -2.65240000       0.47410000
H        1.59500000      -2.56550000       1.64450000
H        0.44140000      -0.24280000       2.22090000
