14
Properties=species:S:1:pos:R:3 gdb_25738=T pbc="F F F"
N       -0.07150000       1.36730000      -0.07760000
C        0.04980000       0.00800000      -0.00790000
O        1.13680000      -0.56840000      -0.01240000
C       -1.17540000      -0.76010000       0.03980000
C       -1.35340000      -2.12280000       0.07110000
N       -0.40550000      -3.09080000       0.16170000
N       -2.71050000      -2.40530000       0.05110000
C       -3.27470000      -1.23810000       0.01820000
O       -2.44340000      -0.18810000       0.01270000
H        0.77040000       1.91090000       0.01380000
H       -0.95780000       1.81480000       0.08210000
H        0.53520000      -2.77020000      -0.02550000
H       -0.66490000      -4.00940000      -0.15880000
H       -4.33230000      -1.02320000      -0.00400000
