18
Properties=species:S:1:pos:R:3 gdb_37788=T pbc="F F F"
C       -0.05710000       1.51820000       0.08930000
C        1.37120000       2.01820000      -0.07790000
C        2.30800000       0.84230000       0.22380000
C        1.43710000      -0.35740000       0.57050000
C        0.04710000      -0.02210000      -0.02230000
N       -0.09360000      -0.48810000      -1.40170000
C        0.68610000      -0.10080000      -2.31310000
O        1.74810000       0.74470000      -2.31520000
C        2.21820000       1.41570000      -1.15940000
H       -0.42520000       1.80680000       1.08130000
H       -0.75400000       1.92090000      -0.65110000
H        1.60420000       3.02980000       0.23890000
H        3.23870000       0.97800000       0.76530000
H        1.81560000      -1.30480000       0.17640000
H        1.37570000      -0.45380000       1.66130000
H       -0.74660000      -0.50740000       0.55060000
H        0.55390000      -0.46720000      -3.33060000
H        3.06640000       2.00890000      -1.48070000
