17
Properties=species:S:1:pos:R:3 gdb_130270=T pbc="F F F"
N       -0.06470000       1.43840000       0.01210000
C        0.05270000       0.05930000       0.06560000
N       -0.96740000      -0.69540000       0.41390000
O       -0.46020000      -2.00450000       0.44100000
C        0.83840000      -1.98760000       0.09290000
C        1.54590000      -3.29830000       0.07140000
C        1.61130000      -3.95800000       1.45260000
O        2.30780000      -5.18200000       1.29290000
C        1.23360000      -0.71200000      -0.15770000
H        0.46660000       1.86960000      -0.73060000
H       -1.02800000       1.74730000       0.00830000
H        1.03990000      -3.98740000      -0.61440000
H        2.56220000      -3.15180000      -0.30450000
H        2.12700000      -3.28590000       2.15600000
H        0.59100000      -4.11440000       1.83010000
H        2.32820000      -5.62980000       2.14350000
H        2.21300000      -0.36610000      -0.44380000
