21
Properties=species:S:1:pos:R:3 gdb_113791=T pbc="F F F"
C       -0.16310000       1.58740000      -0.19500000
C       -0.04230000       0.20600000       0.45990000
C       -1.35260000      -0.54350000       0.44520000
O       -1.80120000      -1.06310000      -0.81430000
C       -1.47440000      -1.99420000       0.21930000
C       -0.30190000      -2.92460000      -0.01820000
C        0.20100000      -3.03520000      -1.43910000
C        0.56830000      -3.26880000       1.12000000
O       -0.44570000      -4.17190000       0.67840000
H        0.79270000       2.11880000      -0.17420000
H       -0.47900000       1.49100000      -1.23790000
H       -0.90270000       2.20760000       0.32280000
H        0.72670000      -0.38440000      -0.04770000
H        0.28040000       0.31270000       1.50390000
H       -2.15150000      -0.06680000       1.01920000
H       -2.33180000      -2.51150000       0.65270000
H        0.55450000      -2.06970000      -1.80920000
H        1.01490000      -3.76230000      -1.49270000
H       -0.60550000      -3.36270000      -2.10220000
H        1.59420000      -3.58830000       0.93800000
H        0.39340000      -2.80960000       2.09260000
