19
Properties=species:S:1:pos:R:3 gdb_72887=T pbc="F F F"
C       -0.30980000       1.56570000      -0.04370000
C        0.06510000       0.11450000       0.06030000
C       -1.00930000      -0.98660000       0.18780000
O       -0.27920000      -1.63220000       1.26230000
C        0.76160000      -0.64030000       1.22070000
C        1.84310000      -0.92780000       0.19670000
C        3.32900000      -0.82980000       0.31960000
C        2.65570000      -2.15390000      -0.02110000
O        1.12170000      -0.26920000      -0.85780000
H        0.57010000       2.20230000       0.08270000
H       -0.73800000       1.77330000      -1.03090000
H       -1.05240000       1.83270000       0.71420000
H       -1.99500000      -0.64610000       0.52940000
H       -1.11630000      -1.62270000      -0.69710000
H        1.03340000      -0.25880000       2.20700000
H        3.85430000      -0.31790000      -0.47960000
H        3.76050000      -0.70020000       1.30710000
H        2.61600000      -2.93630000       0.72920000
H        2.74590000      -2.50600000      -1.04300000
