24
Properties=species:S:1:pos:R:3 gdb_58508=T pbc="F F F"
C        0.02290000       1.52250000       0.14920000
C       -0.08990000      -0.00080000      -0.01390000
C       -1.55680000      -0.45550000      -0.00990000
C        0.68590000      -0.52280000      -1.24260000
C        0.20070000       0.06550000      -2.57230000
C        2.24570000      -0.49720000      -1.16300000
N        2.35580000      -1.97230000      -1.45420000
C        1.69660000      -2.64260000      -0.32030000
C        0.83900000      -2.04940000      -1.36430000
H        1.06610000       1.85530000       0.11740000
H       -0.52250000       2.05630000      -0.63610000
H       -0.39700000       1.83860000       1.10960000
H        0.38540000      -0.45010000       0.86780000
H       -2.12680000       0.00150000      -0.82550000
H       -1.63610000      -1.54300000      -0.11070000
H       -2.04560000      -0.17160000       0.92780000
H        0.34260000       1.14990000      -2.60780000
H        0.76160000      -0.36990000      -3.40530000
H       -0.86020000      -0.14190000      -2.74620000
H        2.72460000       0.08420000      -1.95400000
H        2.68340000      -0.21420000      -0.19870000
H        1.82180000      -3.72140000      -0.33650000
H        1.76600000      -2.19800000       0.67000000
H        0.26990000      -2.66650000      -2.05480000
