21
Properties=species:S:1:pos:R:3 gdb_89227=T pbc="F F F"
C        0.02710000       1.47180000      -0.07780000
N       -0.02650000       0.02870000       0.05010000
C       -1.38440000      -0.53780000       0.09180000
C       -1.22450000      -1.82880000       0.89050000
C       -2.14420000      -2.98740000       0.61310000
C        0.19790000      -2.00230000       1.24060000
C        0.64980000      -0.53060000       1.21640000
C       -0.16930000      -0.38090000       2.53350000
N       -0.80900000      -1.72530000       2.33240000
H        1.07080000       1.80050000      -0.11630000
H       -0.45360000       1.77540000      -1.01350000
H       -0.47310000       2.01470000       0.74660000
H       -2.11310000       0.13960000       0.57180000
H       -1.75540000      -0.74110000      -0.92050000
H       -2.06670000      -3.30740000      -0.43160000
H       -1.89700000      -3.83260000       1.25980000
H       -3.18700000      -2.71270000       0.80760000
H        0.78640000      -2.91000000       1.17980000
H        1.70990000      -0.27470000       1.23420000
H        0.44610000      -0.42810000       3.43560000
H       -0.86360000       0.46290000       2.61770000
