18
Properties=species:S:1:pos:R:3 gdb_37610=T pbc="F F F"
C       -0.03590000       1.58470000       0.05640000
C        1.47690000       1.82410000      -0.01260000
C        2.02120000       0.92050000      -1.17010000
C        1.04540000      -0.29800000      -1.13720000
C        0.02530000       0.05570000      -0.01740000
C        1.15590000      -0.39440000       0.95150000
C        2.13570000       0.82070000       0.99320000
C        2.90470000       0.12300000      -0.16670000
N        1.95060000      -1.06360000      -0.17090000
H       -0.48370000       1.94800000       0.98900000
H       -0.57760000       2.02990000      -0.78640000
H        1.83500000       2.85340000       0.01590000
H        2.34810000       1.34610000      -2.11740000
H        0.73840000      -0.78530000      -2.06370000
H       -0.91150000      -0.49980000       0.00660000
H        0.94590000      -0.96620000       1.85650000
H        2.56270000       1.15910000       1.93590000
H        3.98000000      -0.04280000      -0.23130000
