19
Properties=species:S:1:pos:R:3 gdb_71107=T pbc="F F F"
C       -0.02580000       1.50150000       0.03380000
C        0.04930000      -0.00770000       0.02470000
C        0.70890000      -0.71570000      -1.19110000
C        0.47010000      -2.15910000      -0.74330000
C        0.49240000      -2.16700000       0.75710000
C        0.74460000      -0.72840000       1.21280000
C       -0.85300000      -2.18520000       0.02660000
C       -1.30810000      -0.75930000       0.04080000
O       -2.41690000      -0.29390000       0.05980000
H        0.97280000       1.95030000       0.02080000
H       -0.57730000       1.86890000      -0.83710000
H       -0.55020000       1.85970000       0.92500000
H        0.20860000      -0.46910000      -2.13380000
H        1.77350000      -0.47500000      -1.28720000
H        0.77570000      -3.01550000      -1.32970000
H        0.81510000      -3.02960000       1.32500000
H        1.81160000      -0.48860000       1.27980000
H        0.27250000      -0.49200000       2.17250000
H       -1.52600000      -3.03000000       0.03210000
