17
Properties=species:S:1:pos:R:3 gdb_114419=T pbc="F F F"
O        0.01160000       1.37530000      -0.29430000
C        0.05040000       0.05630000       0.21600000
C       -1.32540000      -0.58920000       0.11280000
N       -1.87190000      -0.52870000      -1.27990000
C       -2.19700000      -1.98320000      -1.25230000
C       -1.47250000      -2.14260000       0.11770000
N       -0.45320000      -2.91730000      -0.58740000
C       -1.02120000      -2.81000000      -1.84830000
O       -0.67340000      -3.18770000      -2.93060000
H       -0.29810000       1.28680000      -1.20530000
H        0.78630000      -0.55770000      -0.32440000
H        0.36820000       0.12580000       1.26210000
H       -2.00800000      -0.14060000       0.84440000
H       -2.69800000       0.05200000      -1.35620000
H       -3.22230000      -2.28240000      -1.46420000
H       -1.89210000      -2.62230000       1.00120000
H        0.48730000      -3.17380000      -0.32200000
