17
Properties=species:S:1:pos:R:3 gdb_54330=T pbc="F F F"
N        0.26770000       0.87400000       0.39960000
C        0.12360000      -0.19730000      -0.42760000
O        1.01410000      -0.64030000      -1.12990000
C       -1.25360000      -0.81590000      -0.42420000
C       -1.68790000      -1.57270000      -1.65990000
C       -1.31690000      -2.32170000      -0.41250000
O       -2.21980000      -0.15350000       0.36260000
C       -2.86850000       0.88910000      -0.22000000
N       -3.58280000       1.64430000       0.49210000
H        1.19570000       1.24760000       0.51530000
H       -0.43540000       1.08850000       1.08720000
H       -2.73810000      -1.52000000      -1.92230000
H       -0.98520000      -1.57400000      -2.48390000
H       -0.36790000      -2.84280000      -0.39230000
H       -2.11700000      -2.75250000       0.17770000
H       -2.69660000       0.95720000      -1.30020000
H       -4.01970000       2.35830000      -0.08740000
