20
Properties=species:S:1:pos:R:3 gdb_59409=T pbc="F F F"
C        0.15080000       1.20300000      -0.37450000
N        0.03640000      -0.14560000       0.17200000
C        0.69710000      -0.26820000       1.47090000
C       -1.31780000      -0.60820000       0.22550000
C       -2.00330000      -1.02100000      -1.04510000
C       -1.54560000      -2.09320000      -0.05060000
N       -0.38680000      -2.91150000      -0.29480000
C       -2.58070000      -2.74620000       0.71930000
N       -3.42770000      -3.25670000       1.31930000
H        1.20840000       1.46030000      -0.48720000
H       -0.32200000       1.24750000      -1.35880000
H       -0.31940000       1.96790000       0.26880000
H        0.24170000       0.37920000       2.24150000
H        0.64230000      -1.30450000       1.81310000
H        1.75040000       0.01040000       1.37250000
H       -1.95700000      -0.17290000       0.99940000
H       -3.06240000      -0.81570000      -1.14870000
H       -1.42520000      -0.97710000      -1.96160000
H       -0.55400000      -3.55460000      -1.06200000
H        0.37970000      -2.29510000      -0.55130000
