18
Properties=species:S:1:pos:R:3 gdb_31720=T pbc="F F F"
C        0.05960000       1.49450000       0.35040000
C       -0.05160000       0.04090000      -0.14050000
C       -1.45420000      -0.46100000      -0.17240000
N       -2.15250000      -0.83550000      -1.20550000
C       -3.37980000      -1.19500000      -0.68270000
O       -4.39920000      -1.64620000      -1.42970000
C       -4.15730000      -1.74360000      -2.83100000
C       -3.37430000      -1.01900000       0.66430000
O       -2.12470000      -0.54270000       0.99510000
H        1.10640000       1.81070000       0.37130000
H       -0.48940000       2.17300000      -0.30910000
H       -0.34890000       1.59740000       1.35930000
H        0.34580000      -0.05720000      -1.15340000
H        0.54640000      -0.60980000       0.50950000
H       -5.08430000      -2.12250000      -3.26380000
H       -3.91480000      -0.76680000      -3.26130000
H       -3.33470000      -2.43310000      -3.04530000
H       -4.08010000      -1.16280000       1.46060000
