15
Properties=species:S:1:pos:R:3 gdb_32267=T pbc="F F F"
C       -0.07740000       1.34670000      -0.01760000
O       -0.02970000      -0.08130000       0.05760000
C        0.62800000      -0.62100000       1.10370000
N        1.20440000       0.12830000       2.01970000
C        1.82900000      -0.52560000       3.01280000
N        1.92090000      -1.83740000       3.15960000
C        1.32660000      -2.58670000       2.21480000
C        0.65360000      -2.02900000       1.14470000
O        0.05590000      -2.78630000       0.19460000
H        0.93030000       1.76420000      -0.08620000
H       -0.64720000       1.57320000      -0.91910000
H       -0.57150000       1.76410000       0.86340000
H        2.30410000       0.09390000       3.76810000
H        1.38750000      -3.66730000       2.31210000
H       -0.34650000      -2.18430000      -0.44470000
