13
Properties=species:S:1:pos:R:3 gdb_4602=T pbc="F F F"
C       -0.01280000       1.52560000       0.03830000
C       -0.02640000       0.02630000       0.00420000
C       -1.14320000      -0.69880000      -0.21360000
O       -1.14700000      -2.04830000      -0.24270000
C        0.02910000      -2.76290000      -0.04420000
O        0.00450000      -3.96170000      -0.07380000
C        1.20150000      -1.90940000       0.18630000
N        1.18330000      -0.62100000       0.21000000
H        0.66380000       1.92150000      -0.72610000
H       -1.00990000       1.93820000      -0.13410000
H        0.34920000       1.88520000       1.00700000
H       -2.12990000      -0.28500000      -0.38370000
H        2.14030000      -2.43470000       0.34550000
