22
Properties=species:S:1:pos:R:3 gdb_6927=T pbc="F F F"
C        0.01930000       1.53930000      -0.13070000
C        0.00140000       0.02870000       0.01520000
C       -1.20840000      -0.62580000      -0.62760000
C        1.31320000      -0.72210000      -0.04390000
C        0.55230000      -0.63060000       1.26390000
C        1.10910000       0.12700000       2.45060000
C        2.06180000      -0.72690000       3.28160000
O        2.52200000       0.06360000       4.36820000
H        0.91760000       1.99020000       0.29780000
H       -0.01530000       1.82060000      -1.18990000
H       -0.84950000       1.99610000       0.35850000
H       -1.25160000      -0.40580000      -1.70120000
H       -1.18480000      -1.71400000      -0.51200000
H       -2.14070000      -0.26250000      -0.17840000
H        1.34900000      -1.67330000      -0.56550000
H        2.22400000      -0.13660000      -0.13120000
H        0.02600000      -1.54050000       1.54910000
H        1.65120000       1.02240000       2.12980000
H        0.29720000       0.47100000       3.10380000
H        1.53680000      -1.62830000       3.63900000
H        2.89780000      -1.06720000       2.65000000
H        3.12770000      -0.46890000       4.89170000
