20
Properties=species:S:1:pos:R:3 gdb_47429=T pbc="F F F"
O        0.25000000       0.00730000       0.37810000
C        0.05750000       1.17470000       0.16060000
C       -1.29190000       1.83420000      -0.13330000
C       -0.94870000       3.27370000      -0.55150000
C        0.36140000       3.58050000       0.20510000
C        1.15060000       2.26680000       0.13170000
N        2.11810000       2.09330000       1.19480000
C        3.14350000       1.07650000       0.98230000
C        3.48960000       2.52180000       0.91760000
H       -1.86470000       1.25650000      -0.86270000
H       -1.86430000       1.82010000       0.80370000
H       -0.77640000       3.32060000      -1.63310000
H       -1.74250000       3.98760000      -0.32060000
H        0.90650000       4.43150000      -0.21040000
H        0.15410000       3.79890000       1.25890000
H        1.61390000       2.18270000      -0.87460000
H        3.40020000       0.48330000       1.85430000
H        3.12210000       0.52090000       0.04830000
H        3.70440000       2.94220000      -0.06380000
H        4.00390000       3.00750000       1.74150000
