18
Properties=species:S:1:pos:R:3 gdb_109475=T pbc="F F F"
C       -0.12520000       1.39920000       0.10540000
O        0.17160000       0.02180000      -0.07400000
C        0.72070000      -0.60020000       1.06410000
C       -0.34180000      -0.92230000       2.15780000
O       -1.14190000      -0.16970000       2.66530000
N       -0.19240000      -2.26570000       2.42520000
C        0.73830000      -2.85430000       1.54240000
C        1.29740000      -1.95670000       0.72520000
C        2.32020000      -2.16490000      -0.33910000
H        0.78190000       1.96560000       0.36920000
H       -0.50450000       1.76270000      -0.85240000
H       -0.87760000       1.55290000       0.88480000
H        1.48840000       0.05110000       1.52210000
H       -0.83970000      -2.77390000       3.00580000
H        0.92750000      -3.91690000       1.60980000
H        2.56510000      -3.22450000      -0.45530000
H        1.95700000      -1.78600000      -1.30090000
H        3.25080000      -1.62590000      -0.11810000
