20
Properties=species:S:1:pos:R:3 gdb_15187=T pbc="F F F"
C       -0.14060000       1.47190000       0.02090000
C       -0.02710000      -0.05360000       0.06850000
C        0.81450000      -0.53790000       1.24090000
O        0.85650000      -1.94970000       1.21850000
C        1.61850000      -2.50250000       2.26550000
C        1.58460000      -4.00100000       2.14580000
C        1.80550000      -4.86250000       3.31230000
O        0.49660000      -4.67950000       2.77530000
H        0.84310000       1.94400000      -0.07960000
H       -0.75010000       1.79380000      -0.82820000
H       -0.60540000       1.86660000       0.93120000
H       -1.02140000      -0.50780000       0.14600000
H        0.41760000      -0.43190000      -0.85910000
H        1.83670000      -0.12340000       1.17850000
H        0.38420000      -0.18380000       2.19410000
H        2.66500000      -2.15130000       2.21080000
H        1.21870000      -2.20800000       3.24980000
H        1.83940000      -4.38360000       1.15720000
H        2.23980000      -5.85190000       3.17700000
H        1.97640000      -4.41320000       4.29040000
