14
Properties=species:S:1:pos:R:3 gdb_3714=T pbc="F F F"
C        0.13000000       1.54810000       0.16820000
C       -0.09830000       0.04330000      -0.06160000
C        0.59070000      -0.48720000      -1.27790000
C        0.13620000      -0.92600000      -2.50130000
N        1.19690000      -1.29020000      -3.27590000
N        2.29520000      -1.10390000      -2.60570000
N        1.93720000      -0.61780000      -1.39830000
H        1.19190000       1.77550000       0.30720000
H       -0.22490000       2.13070000      -0.68650000
H       -0.40410000       1.88570000       1.06100000
H        0.22740000      -0.51670000       0.82420000
H       -1.16930000      -0.15340000      -0.16920000
H       -0.87870000      -1.00090000      -2.85800000
H        2.65520000      -0.41120000      -0.72210000
