24
Properties=species:S:1:pos:R:3 gdb_122513=T pbc="F F F"
C        0.36240000      -2.84530000       0.24440000
C       -0.03780000      -1.50420000       0.87150000
C       -1.50320000      -1.19380000       0.63270000
C       -2.55170000      -1.58170000       1.61930000
N       -2.25570000      -0.17470000       1.36970000
C       -1.61560000       0.58750000       2.43260000
C       -2.66080000       1.23110000       3.33150000
O       -3.27690000       0.22490000       4.10810000
C       -4.31710000       0.71650000       4.91600000
H        1.42650000      -3.05080000       0.39520000
H       -0.20780000      -3.66990000       0.68430000
H        0.17180000      -2.84980000      -0.83450000
H        0.17930000      -1.52630000       1.94410000
H        0.57970000      -0.70300000       0.44380000
H       -1.77590000      -1.21850000      -0.42340000
H       -3.53120000      -1.92760000       1.29920000
H       -2.21130000      -2.00530000       2.56280000
H       -0.94260000      -0.00900000       3.06920000
H       -1.01760000       1.38360000       1.97270000
H       -2.17980000       1.97860000       3.98620000
H       -3.40740000       1.75390000       2.71250000
H       -4.72670000      -0.12820000       5.47560000
H       -3.95750000       1.47420000       5.63130000
H       -5.12240000       1.16960000       4.31630000
