20
Properties=species:S:1:pos:R:3 gdb_22995=T pbc="F F F"
C        0.06980000       1.57290000       0.06950000
C        0.02230000       0.04330000       0.05090000
O        0.78830000      -0.51690000       1.11110000
C       -1.41300000      -0.49890000       0.06500000
C       -1.62130000      -2.05020000       0.01760000
C       -2.61660000      -1.95490000       1.21690000
C       -2.14610000      -0.52880000       1.39800000
N       -2.13160000       0.31350000       2.34610000
O       -2.84260000      -0.16690000       3.46380000
H        1.10880000       1.91370000       0.07730000
H       -0.42790000       1.99420000      -0.81060000
H       -0.43400000       1.96000000       0.96110000
H        0.50710000      -0.32230000      -0.86340000
H        0.39510000      -0.19980000       1.93380000
H       -2.00770000       0.00770000      -0.70470000
H       -2.01490000      -2.45920000      -0.91400000
H       -0.70250000      -2.57190000       0.29120000
H       -3.66900000      -2.01800000       0.92160000
H       -2.45720000      -2.62000000       2.06880000
H       -2.75710000       0.56170000       4.08810000
