15
Properties=species:S:1:pos:R:3 gdb_131140=T pbc="F F F"
O        0.00700000       1.38190000       0.03750000
C        0.00340000      -0.01530000       0.00440000
C       -0.53130000      -0.77400000       1.20500000
C       -1.36140000      -0.65900000      -0.04470000
C        1.10030000      -0.59060000      -0.79040000
C        2.07230000      -0.00140000      -1.54620000
N        2.83670000      -1.01600000      -2.06720000
N        2.42320000      -2.13820000      -1.70360000
O        1.26150000      -1.90780000      -0.84370000
H        0.69520000       1.66540000       0.65060000
H       -0.07840000      -1.72960000       1.44080000
H       -0.81470000      -0.16300000       2.05450000
H       -2.19490000       0.03320000      -0.03900000
H       -1.48000000      -1.53610000      -0.66930000
H        2.26100000       1.03540000      -1.75830000
