13
Properties=species:S:1:pos:R:3 gdb_123365=T pbc="F F F"
C       -0.70490000      -0.56440000      -1.01600000
C       -0.22480000       0.30820000      -0.34450000
C        0.35810000       1.37330000       0.47020000
N        0.47890000       2.63990000      -0.26160000
C        1.47960000       2.79790000      -0.99080000
O        1.70100000       3.94610000      -1.72580000
C        2.87730000       3.73480000      -2.34650000
N        3.43790000       2.61160000      -2.11730000
O        2.53490000       1.96200000      -1.22930000
H       -1.12750000      -1.33760000      -1.60850000
H       -0.28880000       1.56090000       1.33340000
H        1.32830000       1.03760000       0.86330000
H        3.26930000       4.50910000      -2.98700000
