15
Properties=species:S:1:pos:R:3 gdb_24178=T pbc="F F F"
C       -0.02810000       1.40830000       0.01030000
C        1.28000000       1.84500000       0.00010000
N        2.08840000       0.73300000      -0.01360000
C        3.45540000       0.62430000      -0.02730000
N        4.08660000      -0.50310000      -0.03950000
C        3.33730000      -1.65620000      -0.03860000
C        1.97260000      -1.66130000      -0.02550000
C        1.28050000      -0.42850000      -0.01220000
C       -0.03860000      -0.00610000       0.00280000
H       -0.89430000       2.05300000       0.02210000
H        1.70450000       2.83560000       0.00130000
H        4.00140000       1.56380000      -0.02750000
H        3.90480000      -2.58000000      -0.04900000
H        1.41150000      -2.58830000      -0.02520000
H       -0.90310000      -0.65080000       0.00770000
