23
Properties=species:S:1:pos:R:3 gdb_92498=T pbc="F F F"
C        0.71470000       1.37250000      -0.15240000
C        0.01890000       0.01870000       0.01260000
C        0.18500000      -0.94220000      -1.19000000
C        1.29680000      -1.90680000      -0.76480000
C        2.77410000      -1.43720000      -0.91740000
C        2.89240000      -1.27860000       0.62530000
C        1.40440000      -1.73280000       0.78570000
C        1.15200000      -2.92460000       1.68910000
O        0.50660000      -0.69280000       1.15440000
H        1.77150000       1.26460000      -0.41370000
H        0.22850000       1.95330000      -0.94410000
H        0.65000000       1.94210000       0.77910000
H       -1.04350000       0.20910000       0.20750000
H       -0.74550000      -1.49310000      -1.35670000
H        0.41900000      -0.40570000      -2.11460000
H        1.11410000      -2.92530000      -1.11360000
H        3.43770000      -2.19310000      -1.34330000
H        2.90130000      -0.51790000      -1.49500000
H        3.61590000      -1.95140000       1.09350000
H        3.07510000      -0.26640000       0.99070000
H        1.31660000      -2.64990000       2.73630000
H        0.11920000      -3.27260000       1.58710000
H        1.82610000      -3.75090000       1.44260000
