22
Properties=species:S:1:pos:R:3 gdb_108316=T pbc="F F F"
C        0.01740000       1.53550000       0.00300000
C        0.03760000       0.00460000       0.10470000
C       -1.34970000      -0.58340000       0.02250000
C       -2.33750000      -0.43870000       1.20500000
N       -2.82410000      -1.82120000       0.96770000
C       -2.91500000      -2.70200000       2.10980000
C       -1.76210000      -2.07970000      -0.03070000
C       -2.23500000      -1.76780000      -1.45620000
O       -1.98050000      -0.35210000      -1.26510000
H        1.03190000       1.94390000       0.02090000
H       -0.46280000       1.84750000      -0.92840000
H       -0.53760000       1.98210000       0.83500000
H        0.64400000      -0.41310000      -0.70780000
H        0.50380000      -0.30990000       1.04660000
H       -1.81370000      -0.32430000       2.16770000
H       -3.10400000       0.33730000       1.11330000
H       -3.70380000      -2.34990000       2.78330000
H       -3.18480000      -3.71140000       1.78150000
H       -1.97810000      -2.77170000       2.69690000
H       -1.10340000      -2.93100000       0.15940000
H       -1.60370000      -2.17770000      -2.25610000
H       -3.28930000      -1.98040000      -1.65900000
