15
Properties=species:S:1:pos:R:3 gdb_125711=T pbc="F F F"
C       -0.26090000       1.48750000      -0.00210000
C        0.02330000       0.00990000       0.00980000
N        0.15400000      -0.52790000      -1.16040000
O        0.42270000      -1.91980000      -1.18810000
C        0.54150000      -2.67180000      -0.07260000
N        0.78280000      -3.92450000      -0.07520000
C        0.38440000      -2.01280000       1.22660000
O        0.51270000      -2.80660000       2.28390000
C        0.12870000      -0.68890000       1.26370000
H        0.52140000       2.03100000       0.53850000
H       -0.30760000       1.85370000      -1.02810000
H       -1.21230000       1.69730000       0.49840000
H        0.87890000      -4.31050000      -1.01210000
H        0.69240000      -3.69450000       1.90630000
H        0.00480000      -0.15850000       2.19920000
