14
Properties=species:S:1:pos:R:3 gdb_43608=T pbc="F F F"
O       -0.01700000       0.34100000      -0.99710000
C       -0.01960000       1.30230000      -0.29130000
C       -1.13710000       2.14580000       0.33830000
C       -0.02800000       3.16250000       0.84150000
C        1.09290000       2.17610000       0.30510000
C       -0.05560000       4.44510000       0.15460000
C       -0.07870000       5.48480000      -0.44540000
C       -0.00860000       3.33550000       2.29410000
N        0.00710000       3.43760000       3.44490000
H       -1.86840000       2.56710000      -0.35310000
H       -1.65720000       1.63330000       1.15170000
H        1.65070000       1.67820000       1.10240000
H        1.79160000       2.61680000      -0.40770000
H       -0.09910000       6.41260000      -0.96290000
