18
Properties=species:S:1:pos:R:3 gdb_68253=T pbc="F F F"
C       -0.11460000       1.51560000      -0.01040000
C        0.03630000      -0.00540000       0.05520000
C       -1.24200000      -0.60140000      -0.31620000
C       -2.32920000      -1.01430000      -0.62230000
N        1.27150000      -0.63400000      -0.69010000
C        2.11960000      -0.12840000       0.48730000
C        0.85760000      -0.69530000       1.18350000
O        0.47640000      -0.67640000       2.51150000
C        1.02720000      -1.87330000       0.19020000
H       -0.29980000       1.81840000      -1.04480000
H       -0.98000000       1.81320000       0.58730000
H        0.75240000       2.06100000       0.36110000
H       -3.28340000      -1.39550000      -0.89090000
H        3.04740000      -0.69370000       0.60150000
H        2.31740000       0.94110000       0.48880000
H        1.09250000      -1.21350000       3.02190000
H        0.14920000      -2.45250000      -0.09160000
H        1.91800000      -2.49740000       0.29050000
