25
Properties=species:S:1:pos:R:3 gdb_86301=T pbc="F F F"
C       -0.60420000       0.84610000      -1.61690000
C        0.35720000      -0.20000000      -1.07280000
C        1.88100000      -0.01710000      -1.29670000
C        2.12530000      -0.65440000       0.09640000
C        3.25680000      -0.12960000       0.96640000
C        0.64530000      -0.33900000       0.45880000
C        0.27550000       0.85650000       1.38780000
C       -0.91940000       0.02630000       1.92690000
C       -0.25260000      -1.24490000       1.33610000
H       -0.32340000       1.85690000      -1.30310000
H       -0.60510000       0.83410000      -2.71280000
H       -1.63350000       0.66540000      -1.28610000
H        0.05770000      -1.18920000      -1.44330000
H        2.33440000      -0.49210000      -2.17120000
H        2.15500000       1.04460000      -1.29770000
H        2.22590000      -1.74210000      -0.01510000
H        3.20340000       0.95880000       1.07930000
H        3.23430000      -0.57070000       1.96990000
H        4.23090000      -0.36780000       0.52470000
H        1.03560000       1.01360000       2.15900000
H        0.05560000       1.82240000       0.92650000
H       -1.09980000       0.04840000       3.00440000
H       -1.85430000       0.27320000       1.41620000
H       -0.89330000      -1.96190000       0.81290000
H        0.33070000      -1.78910000       2.08720000
