17
Properties=species:S:1:pos:R:3 gdb_75182=T pbc="F F F"
C        0.00730000       1.47830000       0.07290000
C       -0.03160000      -0.01280000      -0.07120000
N       -0.07800000      -0.58430000      -1.20160000
C       -0.05810000      -2.03260000      -1.28570000
C        0.45690000      -2.70200000       0.01090000
C       -0.23980000      -2.01360000       1.19630000
O        0.00160000      -0.61110000       1.15870000
C        0.22190000      -4.14060000       0.02250000
N        0.01370000      -5.27770000       0.02660000
H        0.89340000       1.77840000       0.64110000
H        0.02620000       1.94070000      -0.91280000
H       -0.86740000       1.82790000       0.63060000
H       -1.06640000      -2.39970000      -1.51430000
H        0.57510000      -2.32360000      -2.12960000
H        1.53560000      -2.52620000       0.09910000
H       -1.31930000      -2.20450000       1.15700000
H        0.14280000      -2.36690000       2.15530000
