19
Properties=species:S:1:pos:R:3 gdb_119816=T pbc="F F F"
C       -0.06280000       1.40560000       0.01160000
O        0.01200000       0.00020000       0.00350000
C       -1.25190000      -0.61530000       0.01010000
C       -1.10880000      -2.10230000       0.00170000
C        0.03360000      -2.79490000      -0.00950000
C       -0.18500000      -4.28210000      -0.01540000
C       -1.71640000      -4.41660000      -0.00560000
O       -2.33910000      -5.44460000      -0.00640000
C       -2.31960000      -3.00050000       0.00550000
H        0.96100000       1.78670000       0.00560000
H       -0.59180000       1.79190000      -0.87410000
H       -0.57780000       1.78250000       0.90950000
H       -1.83420000      -0.30140000       0.89780000
H       -1.84760000      -0.29260000      -0.86550000
H        1.01370000      -2.33670000      -0.01400000
H        0.22810000      -4.78970000      -0.89720000
H        0.24010000      -4.79840000       0.85550000
H       -2.96210000      -2.87510000       0.88750000
H       -2.97390000      -2.86640000      -0.86660000
