18
Properties=species:S:1:pos:R:3 gdb_45618=T pbc="F F F"
O        0.00400000       0.03940000       0.20180000
C       -0.03310000       1.23820000       0.13220000
C       -1.27990000       2.09460000      -0.13410000
C       -0.74370000       3.49670000      -0.10390000
C        0.57400000       3.56120000       0.13430000
C        1.17150000       2.18190000       0.29930000
C        1.35090000       4.81220000       0.22070000
C        2.55440000       4.93160000       1.09560000
N        2.70930000       4.92430000      -0.36230000
H       -1.73000000       1.81030000      -1.09470000
H       -2.04350000       1.89070000       0.62830000
H       -1.37250000       4.36650000      -0.25890000
H        1.63610000       2.01200000       1.27880000
H        1.93400000       1.92950000      -0.44950000
H        0.75640000       5.70990000       0.06740000
H        2.76690000       5.88240000       1.57620000
H        2.86760000       4.05940000       1.66250000
H        3.02890000       4.00900000      -0.67060000
