23
Properties=species:S:1:pos:R:3 gdb_38179=T pbc="F F F"
C        0.12190000       1.52740000       0.02590000
C        1.43930000       0.80360000       0.03580000
C        1.63050000       0.07170000       1.36840000
C        0.29600000      -0.71590000       1.11240000
C        0.13420000       0.04470000      -0.21590000
C        0.47600000      -2.21350000       0.97010000
C        0.71880000      -3.07200000       2.24630000
C       -0.18750000      -4.17250000       1.63190000
C       -0.76600000      -3.10350000       0.66640000
H       -0.29200000       1.93040000       0.94850000
H       -0.06640000       2.14120000      -0.84950000
H        2.22850000       1.05560000      -0.66250000
H        2.49480000      -0.59790000       1.37390000
H        1.67460000       0.70320000       2.26230000
H       -0.50170000      -0.51520000       1.84070000
H       -0.24060000      -0.38760000      -1.13680000
H        1.26230000      -2.41720000       0.23190000
H        1.74860000      -3.33630000       2.49940000
H        0.25340000      -2.61160000       3.12450000
H        0.39790000      -4.92610000       1.09690000
H       -0.88470000      -4.68700000       2.29750000
H       -1.68080000      -2.65300000       1.06640000
H       -0.94840000      -3.39360000      -0.37140000
