22
Properties=species:S:1:pos:R:3 gdb_107244=T pbc="F F F"
C        2.51800000       1.77560000       0.15840000
C        1.24530000       1.49050000      -0.64360000
C        1.30360000       0.24930000      -1.50140000
C        2.22680000      -0.88810000      -1.28950000
N        2.44270000      -0.00060000      -2.45640000
C        1.41440000      -0.28800000      -3.53060000
C        0.39120000      -1.35490000      -3.25260000
C        0.24300000       0.00790000      -2.62170000
C       -0.97270000       0.86990000      -2.81700000
H        2.68350000       1.02590000       0.93830000
H        3.39210000       1.78410000      -0.49980000
H        2.45110000       2.75140000       0.64790000
H        0.38460000       1.40750000       0.03440000
H        1.03690000       2.34870000      -1.29490000
H        3.00740000      -0.76010000      -0.54620000
H        1.92610000      -1.92030000      -1.42070000
H        1.64650000       0.06010000      -4.52990000
H       -0.28520000      -1.50940000      -4.08920000
H        0.58830000      -2.26590000      -2.69960000
H       -1.75080000       0.64140000      -2.07800000
H       -0.74150000       1.93690000      -2.73620000
H       -1.40520000       0.70120000      -3.80830000
