19
Properties=species:S:1:pos:R:3 gdb_107348=T pbc="F F F"
O        0.11270000       1.26660000      -0.46330000
C        0.03060000       0.03420000       0.23530000
C       -1.38060000      -0.51210000       0.21490000
C       -2.43340000       0.27750000       0.96820000
C       -3.85580000      -0.28050000       0.76910000
C       -3.90350000      -1.78120000       0.89880000
C       -2.87210000      -2.55070000       0.54620000
C       -1.62520000      -1.95190000       0.00830000
O       -1.76990000      -0.99980000      -1.08000000
H       -0.18570000       1.08900000      -1.36300000
H        0.71640000      -0.71360000      -0.18960000
H        0.34860000       0.24220000       1.26260000
H       -2.16920000       0.24340000       2.03350000
H       -2.38530000       1.32750000       0.66380000
H       -4.53710000       0.18690000       1.48760000
H       -4.21820000       0.00260000      -0.22690000
H       -4.81850000      -2.23340000       1.27110000
H       -2.91450000      -3.63160000       0.63650000
H       -0.77170000      -2.61590000      -0.11670000
