21
Properties=species:S:1:pos:R:3 gdb_86222=T pbc="F F F"
C       -0.14200000       1.53500000       0.06540000
C       -0.02180000       0.02700000      -0.07710000
C        0.84570000      -0.47120000      -1.23550000
C        1.26220000      -1.86650000      -0.75350000
C        2.50130000      -2.46420000      -1.41220000
C        1.42410000      -1.62360000       0.77290000
O        0.60420000      -0.49760000       1.10350000
C        1.07730000      -2.79000000       1.58160000
C        0.80840000      -3.76520000       2.23080000
H        0.84870000       1.99380000       0.14290000
H       -0.65980000       1.96120000      -0.80010000
H       -0.70960000       1.79040000       0.96440000
H       -1.03050000      -0.40950000      -0.16680000
H        0.31140000      -0.49090000      -2.18930000
H        1.72600000       0.17440000      -1.35070000
H        0.41690000      -2.55060000      -0.89190000
H        3.36560000      -1.79950000      -1.30100000
H        2.75690000      -3.42920000      -0.96270000
H        2.33860000      -2.62670000      -2.48220000
H        2.46980000      -1.35190000       0.98640000
H        0.56690000      -4.61930000       2.81400000
