20
Properties=species:S:1:pos:R:3 gdb_40572=T pbc="F F F"
C       -0.09940000       1.46940000      -0.09400000
C        1.31620000       0.98570000       0.08180000
C        0.18790000      -0.01270000      -0.03130000
C       -0.23550000      -0.80610000       1.17500000
C       -1.55060000      -1.57070000       1.22060000
C       -1.33130000      -2.95540000       0.69820000
C        0.12620000      -3.11410000       0.30760000
C        0.38160000      -2.18780000       1.51150000
N       -0.98860000      -2.63080000       2.12780000
H       -0.58940000       1.92510000       0.76040000
H       -0.38410000       1.89830000      -1.04830000
H        2.00360000       1.08350000      -0.75110000
H        1.77880000       1.11620000       1.05490000
H        0.11660000      -0.54050000      -0.97770000
H       -0.17230000      -0.17910000       2.07280000
H       -2.54760000      -1.17340000       1.37790000
H       -2.16170000      -3.61070000       0.45930000
H        0.47130000      -4.12930000       0.51990000
H        0.46930000      -2.80970000      -0.68640000
H        1.28960000      -2.26830000       2.10610000
