20
Properties=species:S:1:pos:R:3 gdb_57515=T pbc="F F F"
C       -0.13670000       1.57530000       0.12450000
C        0.01860000       0.05220000       0.08830000
C        0.63990000      -0.49940000       1.37470000
C       -1.32190000      -0.62460000      -0.20220000
O        0.83310000      -0.34190000      -1.07150000
C        2.10360000       0.03720000      -1.23190000
N        2.79440000       0.76430000      -0.45440000
C        2.64240000      -0.54260000      -2.52870000
O        3.76990000      -0.34200000      -2.89630000
H        0.81700000       2.06610000       0.31810000
H       -0.53930000       1.94010000      -0.82540000
H       -0.84040000       1.84720000       0.91740000
H       -0.03500000      -0.30390000       2.21380000
H        0.77900000      -1.58210000       1.29720000
H        1.60220000      -0.03160000       1.58200000
H       -1.74090000      -0.26190000      -1.14480000
H       -1.19920000      -1.70890000      -0.27300000
H       -2.03280000      -0.40760000       0.59970000
H        3.72480000       0.86320000      -0.86830000
H        1.92160000      -1.15810000      -3.10230000
