16
Properties=species:S:1:pos:R:3 gdb_66712=T pbc="F F F"
C       -0.11230000       1.49190000       0.01380000
C        0.01860000       0.00820000      -0.00990000
C        0.91190000      -0.98190000      -0.80770000
C       -0.15850000      -2.00950000      -0.81010000
N        0.85230000      -1.99890000       0.30190000
C       -0.05000000      -1.03660000       1.06540000
C       -1.11470000      -1.06560000      -0.02790000
C       -2.51040000      -0.88600000       0.01830000
C       -3.70540000      -0.73100000       0.05050000
H        0.81460000       1.96810000       0.35340000
H       -0.35320000       1.88650000      -0.97950000
H       -0.91580000       1.79200000       0.69410000
H        1.78870000      -0.85110000      -1.43080000
H       -0.33580000      -2.87650000      -1.43470000
H       -0.14770000      -0.99000000       2.14320000
H       -4.75810000      -0.59780000       0.08300000
