20
Properties=species:S:1:pos:R:3 gdb_11350=T pbc="F F F"
C       -0.08220000       1.58730000      -0.05190000
C        0.01930000       0.05960000       0.01820000
C        0.79110000      -0.57330000      -1.17140000
C        1.55370000      -1.78340000      -0.58100000
C        1.61780000      -1.45540000       0.89670000
C        2.49540000      -2.23150000       1.82260000
O        2.32990000      -1.77070000       3.15170000
C        0.78400000      -0.46530000       1.21430000
H        0.91400000       2.04350000      -0.06290000
H       -0.61000000       1.90650000      -0.95730000
H       -0.62540000       1.99040000       0.80950000
H       -1.00700000      -0.34060000       0.04840000
H        0.13870000      -0.84480000      -2.00590000
H        1.51320000       0.15890000      -1.55100000
H        1.01140000      -2.72690000      -0.74200000
H        2.54320000      -1.92110000      -1.03480000
H        2.25090000      -3.30620000       1.73620000
H        3.54550000      -2.13320000       1.49170000
H        2.91910000      -2.27650000       3.71810000
H        0.63400000      -0.09220000       2.22030000
