19
Properties=species:S:1:pos:R:3 gdb_61672=T pbc="F F F"
O       -0.06050000       1.42290000      -0.02420000
C        0.01790000      -0.00170000       0.02670000
C        0.63290000      -0.59190000      -1.25790000
C       -0.10800000      -0.15500000      -2.51350000
C        0.12310000       1.26690000      -3.07220000
O        0.43880000       0.74610000      -4.38160000
C        0.44470000      -0.60580000      -3.88460000
C        0.73230000      -0.45950000       1.22090000
C        1.36200000      -0.81120000       2.18270000
H        0.82140000       1.76890000       0.15280000
H       -1.02760000      -0.32990000       0.09020000
H        1.68880000      -0.29650000      -1.31630000
H        0.61870000      -1.68570000      -1.17310000
H       -1.17460000      -0.38020000      -2.41540000
H       -0.73720000       1.94330000      -3.08940000
H        0.97790000       1.79210000      -2.62630000
H        1.46120000      -1.02470000      -3.84540000
H       -0.18850000      -1.27090000      -4.48330000
H        1.89920000      -1.12610000       3.04340000
