21
Properties=species:S:1:pos:R:3 gdb_66423=T pbc="F F F"
C        0.03130000       1.50890000       0.01270000
C        0.00660000       0.01610000       0.00290000
C        0.86510000      -0.98110000      -0.76420000
C        0.86170000      -0.99100000       0.76080000
C       -0.31610000      -2.01650000       0.75300000
C       -0.71010000      -3.08340000       1.72110000
C       -1.17470000      -1.00630000      -0.00670000
C       -0.31230000      -2.00700000      -0.77470000
C       -0.70140000      -3.06180000      -1.75790000
H        1.06350000       1.87720000       0.01800000
H       -0.46520000       1.92640000      -0.87160000
H       -0.47020000       1.91480000       0.89970000
H        1.68440000      -0.80100000      -1.44950000
H        1.67790000      -0.81990000       1.45220000
H       -0.94090000      -2.66540000       2.70860000
H       -1.60270000      -3.61520000       1.37280000
H        0.08740000      -3.82510000       1.85190000
H       -2.25140000      -0.88290000      -0.00860000
H       -0.92670000      -2.63160000      -2.74140000
H        0.09660000      -3.80210000      -1.89350000
H       -1.59600000      -3.59740000      -1.42100000
