18
Properties=species:S:1:pos:R:3 gdb_34664=T pbc="F F F"
N       -0.01710000      -1.15200000      -0.43390000
C       -0.03380000      -0.00920000      -0.24180000
C       -0.00900000       1.40160000       0.00310000
C       -1.17410000       2.07080000      -0.01290000
C       -1.35790000       3.55160000       0.18050000
C       -0.59410000       4.17910000       1.35470000
O        0.80560000       4.22330000       1.17450000
C        1.47620000       2.99720000       1.38630000
C        1.36750000       2.01200000       0.21790000
H       -2.07370000       1.49560000      -0.21360000
H       -1.05750000       4.07750000      -0.73750000
H       -2.42390000       3.76200000       0.31900000
H       -0.91180000       5.22130000       1.46160000
H       -0.84490000       3.65030000       2.28800000
H        2.53060000       3.25830000       1.52270000
H        1.12170000       2.52040000       2.31390000
H        2.09140000       1.20810000       0.38290000
H        1.67910000       2.52890000      -0.69950000
