15
Properties=species:S:1:pos:R:3 gdb_55995=T pbc="F F F"
N       -0.09380000       1.33560000       0.02150000
C        0.06330000      -0.00380000       0.20770000
O        0.96110000      -0.53530000       0.81380000
O       -0.98460000      -0.66490000      -0.37350000
C       -0.96510000      -2.07080000      -0.26980000
C       -2.03460000      -2.71660000       0.66130000
N       -2.55320000      -3.38840000      -0.53440000
C       -1.71100000      -2.78500000      -1.43630000
O       -1.61430000      -2.82190000      -2.63120000
H        0.70140000       1.91290000       0.23390000
H       -0.74310000       1.65600000      -0.67680000
H        0.05110000      -2.42500000      -0.09480000
H       -1.64870000      -3.38820000       1.43330000
H       -2.72050000      -1.98630000       1.10080000
H       -3.30050000      -4.05330000      -0.66370000
