12
Properties=species:S:1:pos:R:3 gdb_16785=T pbc="F F F"
N       -0.07400000       1.26430000      -0.05560000
C       -0.05220000       0.01320000       0.03800000
O        1.09920000      -0.75140000       0.20180000
C        0.84340000      -2.10400000       0.00620000
O        1.71650000      -2.90620000      -0.08870000
C       -0.64520000      -2.27890000      -0.08240000
N       -1.28720000      -1.77180000       1.15560000
C       -1.21790000      -0.91050000      -0.04650000
H        0.86540000       1.65870000       0.01610000
H       -1.05520000      -3.11820000      -0.62740000
H       -2.22370000      -2.16970000       1.20960000
H       -2.11380000      -0.60280000      -0.56780000
