15
Properties=species:S:1:pos:R:3 gdb_125260=T pbc="F F F"
C       -0.02020000       1.52250000      -0.01730000
C       -0.06210000       0.02830000      -0.00310000
C       -1.19100000      -0.71320000      -0.11040000
C       -1.10550000      -2.14170000      -0.08390000
O       -2.26240000      -2.83180000      -0.19480000
N        0.00500000      -2.79800000       0.03880000
N        1.12240000      -2.03870000       0.14470000
C        1.23150000      -0.65890000       0.13890000
O        2.31530000      -0.10270000       0.24380000
H        0.61890000       1.87410000      -0.83410000
H       -1.01740000       1.95400000      -0.12540000
H        0.44000000       1.89570000       0.90370000
H       -2.17000000      -0.25760000      -0.21710000
H       -2.03700000      -3.77150000      -0.16000000
H        1.98280000      -2.55970000       0.24000000
