21
Properties=species:S:1:pos:R:3 gdb_39836=T pbc="F F F"
C       -0.10120000       1.42570000      -0.06290000
C        1.29090000       0.84990000       0.03490000
C        1.94680000       0.65850000       1.39240000
C        1.21120000       1.04270000       2.65360000
C        1.15380000      -0.38340000       2.15660000
C       -0.00300000      -0.81860000       1.27550000
C       -0.43400000      -2.26500000       1.27970000
C       -1.33920000      -1.20990000       1.86590000
C        0.09090000      -0.07310000      -0.04340000
H       -0.54600000       1.91810000       0.79410000
H       -0.38170000       1.87040000      -1.01250000
H        1.95440000       0.97860000      -0.81250000
H        3.03050000       0.66450000       1.41480000
H        1.81560000       1.22910000       3.53570000
H        0.32500000       1.66390000       2.59670000
H        1.64660000      -1.14630000       2.75110000
H       -0.71730000      -2.71540000       0.33370000
H        0.06870000      -2.94480000       1.96040000
H       -1.44840000      -1.17210000       2.94470000
H       -2.23540000      -0.94240000       1.31580000
H       -0.14110000      -0.62450000      -0.94920000
