17
Properties=species:S:1:pos:R:3 gdb_85016=T pbc="F F F"
C       -0.21170000       1.54930000      -0.07020000
C        0.03170000       0.04590000       0.03920000
N        0.73220000      -0.53760000      -1.10740000
C        1.90760000      -1.17400000      -0.79580000
N        2.90280000      -1.54100000      -1.49940000
C        1.90950000      -1.41450000       0.70580000
O        3.17760000      -1.45010000       1.27100000
C        0.98120000      -0.30540000       1.20880000
O        0.97680000       0.22620000       2.28230000
H        0.72530000       2.08290000      -0.25500000
H       -0.91200000       1.77740000      -0.87960000
H       -0.63500000       1.91430000       0.86870000
H       -0.92780000      -0.46480000       0.21070000
H        0.56090000      -0.19680000      -2.04080000
H        2.81870000      -1.28940000      -2.48400000
H        1.35380000      -2.35780000       0.88460000
H        3.77580000      -1.62010000       0.52510000
