20
Properties=species:S:1:pos:R:3 gdb_37800=T pbc="F F F"
C       -0.02790000       1.49210000       0.00090000
C        1.41200000       1.98260000       0.03080000
C        2.28550000       0.84050000       0.46200000
C        1.37620000      -0.33870000       0.78780000
C        0.06510000      -0.05520000       0.02560000
O        0.02150000      -0.61960000      -1.28260000
C        1.23890000      -0.63840000      -1.99930000
C        1.94510000       0.71440000      -2.11800000
N        2.36470000       1.38730000      -0.88940000
H       -0.55360000       1.85520000       0.89300000
H       -0.59500000       1.82930000      -0.87230000
H        1.60710000       3.01550000       0.31050000
H        3.17880000       0.97970000       1.06630000
H        1.79320000      -1.32240000       0.55640000
H        1.17710000      -0.32470000       1.86640000
H       -0.79890000      -0.49140000       0.53330000
H        1.93690000      -1.37490000      -1.57360000
H        0.98260000      -0.98900000      -3.00490000
H        2.84380000       0.55110000      -2.72830000
H        1.30930000       1.41300000      -2.67470000
