20
Properties=species:S:1:pos:R:3 gdb_108002=T pbc="F F F"
C        0.03210000       1.53030000       0.12450000
C       -0.07640000       0.00970000      -0.02670000
C       -1.49340000      -0.50600000      -0.06740000
C       -2.61190000       0.05460000      -0.97490000
C       -3.52410000      -0.49820000       0.13020000
C       -3.28000000      -2.00810000       0.26150000
C       -2.38570000      -1.78650000       1.44370000
C       -1.74790000      -2.01690000       0.10700000
N       -2.40590000      -0.28910000       1.17480000
H        1.07430000       1.83470000       0.25910000
H       -0.35370000       2.05220000      -0.75710000
H       -0.54010000       1.86690000       0.99380000
H        0.44210000      -0.32150000      -0.93740000
H        0.43610000      -0.48080000       0.81120000
H       -2.61540000       1.14760000      -0.98450000
H       -2.71270000      -0.33950000      -1.98930000
H       -4.51130000      -0.08900000       0.34490000
H       -3.90550000      -2.85310000       0.00520000
H       -2.29190000      -2.26130000       2.41200000
H       -1.19410000      -2.86870000      -0.26740000
