21
Properties=species:S:1:pos:R:3 gdb_94325=T pbc="F F F"
C       -0.63580000       1.16000000       0.02760000
C        0.13960000      -0.14100000      -0.10870000
C        1.53970000      -0.10450000      -0.79650000
C        2.10760000      -1.02170000       0.32600000
C        0.83150000      -0.74340000       1.12860000
C        0.75940000      -0.22670000       2.52830000
C        0.21010000      -1.61350000       2.20520000
C       -1.20290000      -1.84840000       2.19780000
C       -2.39030000      -2.04540000       2.16660000
H       -0.02460000       1.93830000       0.49790000
H       -0.95010000       1.52930000      -0.95490000
H       -1.53660000       1.02140000       0.63480000
H       -0.49830000      -0.90040000      -0.57570000
H        1.59770000      -0.48110000      -1.82010000
H        1.97700000       0.89780000      -0.76870000
H        2.19260000      -2.06780000       0.01580000
H        3.05290000      -0.71640000       0.78300000
H        1.67280000      -0.18510000       3.11350000
H        0.03560000       0.54730000       2.75940000
H        0.81460000      -2.45260000       2.54100000
H       -3.43680000      -2.22230000       2.15190000
