16
Properties=species:S:1:pos:R:3 gdb_128423=T pbc="F F F"
C       -0.29890000       1.39330000       0.46540000
N       -0.29920000      -0.06500000       0.44000000
C       -1.11570000      -0.61240000      -0.63470000
C       -1.19860000      -2.09620000      -0.52830000
N       -0.70360000      -2.93060000      -1.36390000
O       -1.03990000      -4.20450000      -0.82860000
C       -1.73720000      -4.01760000       0.33260000
N       -2.22350000      -4.85940000       1.12130000
O       -1.83750000      -2.66030000       0.52440000
H        0.37150000       1.73820000       1.25670000
H        0.01310000       1.86390000      -0.48340000
H       -1.30660000       1.75280000       0.70120000
H        0.65110000      -0.40780000       0.34390000
H       -2.12990000      -0.20580000      -0.53490000
H       -0.76440000      -0.37540000      -1.65270000
H       -2.04160000      -5.80700000       0.80060000
