15
Properties=species:S:1:pos:R:3 gdb_12684=T pbc="F F F"
O       -0.30190000       1.25090000       0.95820000
C        0.01830000       0.13640000       0.15960000
C        0.81550000      -0.87440000       0.98910000
O       -0.16540000      -1.68570000       1.68450000
C       -1.38160000      -1.50260000       1.12750000
N       -2.49850000      -1.89500000       1.56410000
C       -1.25620000      -0.67490000      -0.13730000
O       -2.38170000       0.13930000      -0.34570000
H       -1.19790000       1.50720000       0.69320000
H        0.56100000       0.43140000      -0.74830000
H        1.43370000      -1.52690000       0.36340000
H        1.43630000      -0.38240000       1.73920000
H       -2.42120000      -2.39510000       2.44890000
H       -1.08630000      -1.34340000      -0.99550000
H       -3.08660000      -0.25920000       0.19020000
