18
Properties=species:S:1:pos:R:3 gdb_126547=T pbc="F F F"
C       -0.06390000       1.53560000       0.00740000
C       -0.02410000       0.00640000       0.03260000
C        0.80910000      -0.54120000       1.20830000
C        0.80620000      -2.04260000       1.24450000
N       -0.30100000      -2.65390000       1.70400000
C       -0.26200000      -3.97630000       1.69410000
C        0.86550000      -4.65290000       1.22890000
N        1.92980000      -3.99430000       0.78160000
N        1.90220000      -2.66520000       0.78930000
H        0.94310000       1.95720000      -0.08300000
H       -0.65530000       1.90050000      -0.83790000
H       -0.50990000       1.93540000       0.92470000
H       -1.04140000      -0.39530000       0.10580000
H        0.39660000      -0.37190000      -0.90690000
H        1.84360000      -0.19740000       1.12720000
H        0.39020000      -0.16920000       2.14980000
H       -1.13570000      -4.51100000       2.06090000
H        0.92530000      -5.73640000       1.21140000
