17
Properties=species:S:1:pos:R:3 gdb_10806=T pbc="F F F"
C        0.02150000       1.54990000       0.03390000
C       -0.02210000       0.05140000      -0.00350000
C       -0.04840000      -0.64190000      -1.14530000
N       -0.07000000      -2.04430000      -1.17950000
C       -0.31270000      -2.84990000      -0.08920000
O       -0.27240000      -4.06120000      -0.16200000
C       -0.69360000      -2.07820000       1.16760000
C        0.01280000      -0.71890000       1.29760000
H        0.90890000       1.90760000       0.57350000
H        0.04590000       1.97960000      -0.97180000
H       -0.84860000       1.96730000       0.55770000
H       -0.04390000      -0.16720000      -2.12020000
H        0.10520000      -2.52880000      -2.04650000
H       -1.77930000      -1.91930000       1.11030000
H       -0.50850000      -2.72730000       2.02520000
H        1.05900000      -0.86650000       1.60690000
H       -0.45560000      -0.13900000       2.10060000
