17
Properties=species:S:1:pos:R:3 gdb_34319=T pbc="F F F"
C       -0.16310000      -1.28130000      -0.00420000
C       -0.07470000      -0.08210000       0.00470000
C        0.02390000       1.36960000       0.02950000
C       -0.66170000       2.02760000       1.24780000
C        0.55310000       2.35120000       2.17950000
C        1.68380000       2.60700000       1.18220000
C        1.39440000       1.99960000       0.04030000
C        1.29220000       2.15320000      -1.45310000
O       -0.14920000       1.92300000      -1.33300000
H       -0.23890000      -2.34050000      -0.01990000
H       -1.12440000       2.96020000       0.91150000
H       -1.42320000       1.40230000       1.71810000
H        0.36480000       3.22840000       2.80610000
H        0.76860000       1.51810000       2.86100000
H        2.50760000       3.28330000       1.37670000
H        1.52800000       3.13560000      -1.87310000
H        1.76240000       1.36530000      -2.05400000
