16
Properties=species:S:1:pos:R:3 gdb_5245=T pbc="F F F"
O       -0.08360000       1.45480000       0.10200000
C        0.02600000       0.04210000       0.08530000
C       -1.38130000      -0.52570000      -0.12850000
C       -1.42270000      -2.01740000      -0.13120000
C       -1.53190000      -2.94320000      -1.13870000
N       -1.49690000      -4.22820000      -0.64590000
C       -1.36690000      -4.09260000       0.65220000
N       -1.31370000      -2.77920000       1.01880000
H        0.80050000       1.82700000       0.16750000
H        0.68480000      -0.30870000      -0.72320000
H        0.44280000      -0.33940000       1.03240000
H       -2.03860000      -0.11210000       0.64700000
H       -1.76060000      -0.15650000      -1.08590000
H       -1.63900000      -2.74930000      -2.19590000
H       -1.30880000      -4.89440000       1.37340000
H       -1.23520000      -2.42370000       1.95720000
