12
Properties=species:S:1:pos:R:3 gdb_25355=T pbc="F F F"
O        0.00930000      -0.08160000      -0.00150000
C       -0.01050000       1.12580000       0.00850000
C        1.17170000       1.98200000       0.00300000
C        1.29840000       3.34250000       0.01260000
C        2.70320000       3.61280000      -0.00000000
C        3.31660000       2.38300000      -0.01650000
O        2.41130000       1.40060000      -0.01490000
C        3.34500000       4.87650000       0.00350000
N        3.86060000       5.91270000       0.00640000
H       -0.95720000       1.70640000       0.02320000
H        0.49990000       4.06720000       0.02690000
H        4.35420000       2.09110000      -0.02980000
