19
Properties=species:S:1:pos:R:3 gdb_45431=T pbc="F F F"
O       -0.00700000      -0.03870000       0.20110000
C       -0.01990000       1.15780000       0.05630000
C       -1.28520000       2.01200000      -0.04590000
C       -0.87140000       3.49420000       0.01450000
C       -0.06250000       3.74180000       1.30530000
C        1.27100000       2.94340000       1.21920000
C        1.22530000       2.04280000      -0.02690000
O        1.12040000       2.83070000      -1.21640000
C        0.04160000       3.77470000      -1.18290000
H       -1.79870000       1.77320000      -0.98530000
H       -1.96460000       1.73540000       0.76740000
H       -1.74760000       4.14790000      -0.02850000
H        0.13520000       4.81150000       1.42270000
H       -0.65060000       3.43130000       2.17520000
H        2.12900000       3.61480000       1.11670000
H        1.43960000       2.33600000       2.11360000
H        2.12230000       1.43190000      -0.13650000
H       -0.50560000       3.68210000      -2.12960000
H        0.44990000       4.79450000      -1.12970000
