20
Properties=species:S:1:pos:R:3 gdb_114367=T pbc="F F F"
O        0.81490000      -0.43980000      -0.94000000
C        0.00700000       0.11180000       0.08660000
C       -1.40080000      -0.44510000       0.03800000
C       -2.52430000       0.10430000       0.95320000
C       -3.41860000       0.10460000      -0.30840000
C       -3.63310000       1.47910000      -0.98790000
O       -3.70550000       2.63420000      -0.18590000
C       -2.25130000       1.27450000      -1.63860000
N       -2.21650000      -0.17040000      -1.20890000
H        0.28340000      -0.44970000      -1.74400000
H        0.47160000      -0.16360000       1.04090000
H        0.00090000       1.21250000       0.04400000
H       -1.32710000      -1.53590000       0.11780000
H       -2.83430000      -0.53630000       1.78100000
H       -2.34680000       1.11550000       1.32980000
H       -4.23760000      -0.61990000      -0.33250000
H       -4.45280000       1.44820000      -1.71720000
H       -4.60230000       2.71670000       0.15430000
H       -2.20030000       1.38790000      -2.72450000
H       -1.49530000       1.91950000      -1.18120000
