16
Properties=species:S:1:pos:R:3 gdb_23494=T pbc="F F F"
O       -0.14620000       1.33500000      -0.05520000
N        0.03400000      -0.06480000      -0.01530000
C       -1.07850000      -0.66020000       0.09950000
C       -1.40660000      -2.10420000       0.03650000
C       -2.59080000      -2.37720000       0.97250000
C       -2.86650000      -1.36170000       2.07910000
O       -3.08820000      -0.11640000       1.40620000
C       -2.56790000      -0.26810000       0.09650000
C       -2.85930000      -1.73200000      -0.34080000
H        0.75860000       1.64890000      -0.15530000
H       -0.78020000      -2.90190000      -0.34060000
H       -2.84090000      -3.42050000       1.12400000
H       -3.76890000      -1.61250000       2.64740000
H       -2.02410000      -1.27160000       2.77730000
H       -2.86950000       0.57670000      -0.51800000
H       -3.48070000      -2.09090000      -1.14790000
