16
Properties=species:S:1:pos:R:3 gdb_66091=T pbc="F F F"
O        0.01220000       1.44830000      -0.10640000
C       -0.00100000       0.06760000       0.04020000
C        0.31890000      -0.43860000       1.48050000
N       -1.10730000      -0.75380000       1.69760000
C       -1.43340000      -0.58120000       0.27340000
C       -2.58220000       0.37010000      -0.01320000
O       -3.15420000       0.41370000      -1.07010000
C        0.77400000      -0.58780000      -1.07750000
O        1.26260000       0.05820000      -1.97130000
H        0.43310000       1.62130000      -0.96490000
H        1.00020000      -1.30000000       1.50100000
H        0.71160000       0.34740000       2.13210000
H       -1.30460000      -1.66820000       2.08470000
H       -1.58250000      -1.49900000      -0.31130000
H       -2.83760000       1.03070000       0.84200000
H        0.85990000      -1.69240000      -1.03440000
