15
Properties=species:S:1:pos:R:3 gdb_13827=T pbc="F F F"
C        0.00160000       1.44860000      -0.07400000
C        0.04650000      -0.05210000      -0.23780000
O        1.06330000      -0.68570000      -0.38460000
C       -1.28980000      -0.75400000      -0.20880000
N       -2.40590000      -0.15990000      -0.05820000
C       -3.43660000      -1.20920000      -0.09160000
C       -2.64350000      -2.52820000      -0.29020000
O       -1.26350000      -2.09710000      -0.35490000
H        1.01730000       1.84330000      -0.10940000
H       -0.61070000       1.89640000      -0.86250000
H       -0.47850000       1.71120000       0.87340000
H       -4.00950000      -1.19340000       0.84120000
H       -4.13980000      -1.00870000      -0.90650000
H       -2.74220000      -3.22910000       0.54290000
H       -2.88160000      -3.04810000      -1.22170000
