17
Properties=species:S:1:pos:R:3 gdb_125897=T pbc="F F F"
C       -0.66710000       1.31420000      -0.02270000
C        0.18140000       0.04570000       0.01530000
C        1.16340000      -0.08920000      -1.20720000
C        2.32670000      -0.77040000      -0.56750000
C        2.25970000      -0.77800000       0.78980000
C        1.04020000      -0.10390000       1.32790000
N        3.39930000      -1.38220000       1.23950000
N        4.13590000      -1.74410000       0.30500000
O        3.42420000      -1.32900000      -0.99980000
H       -0.03690000       2.21010000       0.01330000
H       -1.26770000       1.36380000      -0.93690000
H       -1.35350000       1.35470000       0.82930000
H       -0.48490000      -0.82320000      -0.02420000
H        0.72300000      -0.64840000      -2.03750000
H        1.45990000       0.89210000      -1.60040000
H        1.27130000       0.87700000       1.76310000
H        0.50550000      -0.67640000       2.09120000
