14
Properties=species:S:1:pos:R:3 gdb_46224=T pbc="F F F"
N        0.00820000       1.21920000      -0.19700000
C        0.00930000      -0.00720000       0.02990000
O        1.01580000      -0.87370000       0.44100000
C        0.11580000      -2.02090000       0.46460000
C       -1.00840000      -1.11050000      -0.03230000
N       -2.40110000      -1.02540000       0.33940000
C       -2.06460000      -1.40450000      -1.04680000
C       -2.41630000      -0.47510000      -2.09350000
N       -2.69750000       0.22350000      -2.96960000
H        0.92330000       1.64470000      -0.04580000
H        0.45300000      -2.80780000      -0.21430000
H       -0.00380000      -2.40920000       1.48050000
H       -2.69740000      -1.84360000       0.86750000
H       -2.16640000      -2.44770000      -1.33810000
