21
Properties=species:S:1:pos:R:3 gdb_101414=T pbc="F F F"
C       -0.20380000       1.59600000      -0.03270000
C       -0.01550000       0.07920000       0.00270000
N        0.79070000      -0.42630000      -1.11600000
C        2.18060000       0.01970000      -1.06000000
C        0.64230000      -1.84550000      -1.31380000
C        1.18880000      -2.50180000      -2.60810000
O        1.94670000      -3.46270000      -1.81120000
C        1.56430000      -2.86420000      -0.62600000
N        1.90840000      -3.09970000       0.55660000
H        0.72600000       2.13640000       0.16530000
H       -0.58440000       1.91330000      -1.00830000
H       -0.92290000       1.89660000       0.73540000
H        0.40990000      -0.22280000       0.97550000
H       -0.99980000      -0.39660000      -0.06940000
H        2.69780000      -0.30280000      -0.14150000
H        2.73690000      -0.37030000      -1.91660000
H        2.22290000       1.10920000      -1.11960000
H       -0.40610000      -2.10850000      -1.14980000
H        0.45860000      -3.00570000      -3.24510000
H        1.85210000      -1.87880000      -3.21170000
H        2.58110000      -3.86770000       0.60670000
