17
Properties=species:S:1:pos:R:3 gdb_8540=T pbc="F F F"
C       -0.63450000       1.42880000      -0.43420000
N       -0.41110000       0.01920000      -0.13350000
C       -1.22870000      -0.58150000       0.95910000
C       -0.11890000      -1.62230000       1.26710000
O       -0.10920000      -1.39760000       2.69800000
C       -0.32980000      -0.05480000       2.15810000
C       -0.46710000       1.05040000       3.15820000
C        0.61160000      -0.30190000       0.90280000
H        0.18490000       1.79370000      -1.06220000
H       -1.56120000       1.52840000      -1.00910000
H       -0.70800000       2.08830000       0.44540000
H       -2.31030000      -0.71750000       0.90750000
H        0.02210000      -2.62820000       0.87750000
H        0.43860000       1.11460000       3.77010000
H       -0.62770000       2.01480000       2.67170000
H       -1.31350000       0.84930000       3.82280000
H        1.67980000      -0.11120000       0.78540000
