17
Properties=species:S:1:pos:R:3 gdb_24687=T pbc="F F F"
C        0.00660000       1.42400000      -0.11990000
C        1.46230000       1.91400000       0.11830000
C        2.25130000       0.63020000       0.01930000
C        3.59090000       0.34480000      -0.10870000
C        3.97460000      -1.00690000      -0.14220000
C        2.99490000      -1.98440000      -0.04760000
N        1.67800000      -1.73440000       0.07850000
C        1.35130000      -0.45100000       0.11400000
N        0.05420000       0.00950000       0.27160000
H       -0.72490000       1.97440000       0.47740000
H       -0.26420000       1.53900000      -1.18050000
H        1.76170000       2.68050000      -0.60110000
H        1.55900000       2.35180000       1.12020000
H        4.33300000       1.13380000      -0.18940000
H        5.01550000      -1.28790000      -0.24940000
H        3.27030000      -3.03580000      -0.07870000
H       -0.68810000      -0.60530000      -0.02790000
