18
Properties=species:S:1:pos:R:3 gdb_93258=T pbc="F F F"
O       -0.04410000       1.42140000      -0.01610000
C       -0.00620000       0.00420000      -0.01630000
C        0.70140000      -0.49820000       1.24650000
O        0.64000000      -1.92570000       1.41490000
C       -0.54420000      -2.55080000       1.18660000
N       -0.91340000      -3.58280000       1.81860000
C       -1.40030000      -2.05130000       0.03070000
O       -2.69530000      -2.58070000       0.09960000
C       -1.43450000      -0.52240000      -0.02420000
H        0.84490000       1.75230000      -0.18030000
H        0.52560000      -0.37520000      -0.90330000
H        1.76810000      -0.25740000       1.23370000
H        0.24560000      -0.00970000       2.11750000
H       -0.25100000      -3.83580000       2.55160000
H       -0.88700000      -2.40860000      -0.88300000
H       -2.63090000      -3.33720000       0.70460000
H       -1.97590000      -0.13330000       0.84580000
H       -1.96570000      -0.19180000      -0.92040000
