18
Properties=species:S:1:pos:R:3 gdb_6904=T pbc="F F F"
C        0.09990000       1.49580000       0.03130000
C        0.03810000       0.04120000       0.03190000
C       -0.00830000      -1.16340000       0.03010000
C       -0.05090000      -2.59630000       0.02140000
C       -0.52630000      -3.37880000       1.25100000
C       -1.35790000      -3.36350000      -0.00180000
C       -2.68280000      -2.64180000      -0.04250000
O       -1.28780000      -4.50320000      -0.82050000
H        1.06910000       1.84930000      -0.33820000
H       -0.67530000       1.93180000      -0.60900000
H       -0.03550000       1.90350000       1.03960000
H        0.73630000      -3.08610000      -0.54430000
H        0.01450000      -4.28940000       1.48240000
H       -0.86130000      -2.80170000       2.10550000
H       -2.64430000      -1.71340000       0.53170000
H       -2.94820000      -2.39820000      -1.07590000
H       -3.47800000      -3.27100000       0.37580000
H       -1.87340000      -5.17050000      -0.44460000
