15
Properties=species:S:1:pos:R:3 gdb_98964=T pbc="F F F"
O        0.23810000       1.32110000       0.23600000
C       -0.02430000      -0.04510000       0.29050000
C       -1.47450000      -0.34230000      -0.04990000
N       -2.24540000       0.62270000      -0.33050000
N       -1.80570000      -1.70470000      -0.01300000
C       -3.02900000      -2.25190000      -0.27460000
O       -4.04400000      -1.65990000      -0.58390000
C       -3.02660000      -3.77850000      -0.13950000
O       -2.04550000      -4.40530000       0.16460000
H       -0.60860000       1.73070000      -0.01430000
H        0.61930000      -0.60170000      -0.41280000
H        0.18730000      -0.45060000       1.29530000
H       -3.19490000       0.32220000      -0.54410000
H       -1.08790000      -2.37910000       0.22790000
H       -4.01280000      -4.23330000      -0.34970000
