19
Properties=species:S:1:pos:R:3 gdb_96713=T pbc="F F F"
C       -0.44530000       1.31380000      -0.05510000
N       -0.13950000      -0.10530000      -0.03100000
C        0.62440000      -0.64840000      -0.89590000
N        0.83870000      -2.01780000      -0.89430000
C        0.36580000      -2.82270000       0.19050000
C       -0.99380000      -3.45910000       0.08010000
C        0.25290000      -4.30320000      -0.03990000
C        1.35620000       0.02770000      -2.02990000
O        1.36960000       1.21400000      -2.23370000
H        0.43350000       1.92840000       0.17660000
H       -0.81960000       1.65920000      -1.02590000
H       -1.20830000       1.51100000       0.70340000
H        1.69370000      -2.32890000      -1.33170000
H        0.65800000      -2.47650000       1.17980000
H       -1.59090000      -3.53330000       0.98130000
H       -1.55420000      -3.26370000      -0.82600000
H        0.50840000      -4.67780000      -1.02570000
H        0.51880000      -4.96640000       0.77510000
H        1.91010000      -0.67310000      -2.69970000
