19
Properties=species:S:1:pos:R:3 gdb_126407=T pbc="F F F"
C        0.47580000       1.33740000      -0.24680000
C       -0.05220000      -0.04670000       0.16710000
C        0.54110000      -0.54170000       1.43760000
N       -0.04150000      -0.78800000       2.56350000
N        0.96040000      -1.21930000       3.44210000
C        2.06610000      -1.19560000       2.77540000
C        3.43490000      -1.56660000       3.22250000
C        4.01110000      -2.77440000       2.46430000
O        1.88440000      -0.77590000       1.48970000
H        1.56030000       1.31860000      -0.38530000
H        0.01730000       1.65150000      -1.18830000
H        0.24240000       2.08730000       0.51430000
H       -1.13470000      -0.02120000       0.31400000
H        0.15300000      -0.77280000      -0.62880000
H        4.09760000      -0.70180000       3.09650000
H        3.37080000      -1.77500000       4.29320000
H        3.38820000      -3.66110000       2.61250000
H        4.06780000      -2.57350000       1.39090000
H        5.01900000      -3.00060000       2.82250000
