20
Properties=species:S:1:pos:R:3 gdb_104901=T pbc="F F F"
C        0.24130000       1.43820000       0.11280000
C        0.11320000      -0.07310000       0.15060000
C       -1.01740000      -0.60680000      -0.70810000
N        1.37940000      -0.83340000       0.15910000
C        0.52630000      -0.84830000       1.37920000
C        1.21130000      -0.18900000       2.59620000
O        2.31460000       0.60490000       2.23390000
C       -0.19000000      -2.04900000       1.72140000
C       -0.76560000      -3.04680000       2.07030000
H        1.05860000       1.78960000       0.74100000
H        0.41720000       1.76940000      -0.91690000
H       -0.69060000       1.90130000       0.45490000
H       -0.84800000      -0.33550000      -1.75640000
H       -1.10980000      -1.69270000      -0.63770000
H       -1.97380000      -0.16870000      -0.40420000
H        1.28630000      -1.70890000      -0.34970000
H        0.49150000       0.44160000       3.13120000
H        1.51330000      -0.99670000       3.28010000
H        2.65870000       0.20230000       1.42040000
H       -1.28040000      -3.92700000       2.36740000
