16
Properties=species:S:1:pos:R:3 gdb_24600=T pbc="F F F"
C       -0.01370000       1.49100000      -0.12910000
O        1.38000000       1.58900000       0.21480000
C        1.44340000       0.19470000       0.56430000
C        0.01140000      -0.05690000       0.01350000
C       -0.98710000      -0.71920000       0.87360000
C       -1.84360000      -1.76130000       0.72460000
N       -2.56750000      -1.94820000       1.89660000
C       -2.12270000      -1.02780000       2.68550000
O       -1.16470000      -0.23610000       2.14950000
H       -0.65690000       1.99480000       0.60310000
H       -0.22380000       1.88280000      -1.13030000
H        2.25910000      -0.32630000       0.05130000
H        1.53650000       0.04330000       1.64690000
H        0.02280000      -0.56160000      -0.95400000
H       -1.99150000      -2.38950000      -0.13960000
H       -2.41540000      -0.81380000       3.70140000
