20
Properties=species:S:1:pos:R:3 gdb_96030=T pbc="F F F"
C        0.22070000       1.56520000      -0.31780000
C        0.00540000       0.09350000       0.03120000
O        0.36960000      -0.70040000      -1.10420000
C        1.38540000      -1.63930000      -0.76200000
C        2.05360000      -1.08580000       0.49510000
C        0.84660000      -0.46370000       1.21330000
C        1.18750000       0.55810000       2.31190000
C        1.91970000      -0.05130000       3.42130000
N        2.49740000      -0.54980000       4.28920000
H        1.28060000       1.79230000      -0.47170000
H       -0.30540000       1.78940000      -1.24920000
H       -0.17320000       2.22710000       0.46070000
H       -1.06320000      -0.06550000       0.23270000
H        0.94310000      -2.62840000      -0.56440000
H        2.06380000      -1.73660000      -1.61500000
H        2.56060000      -1.84850000       1.08990000
H        2.78640000      -0.31370000       0.23300000
H        0.27370000      -1.27350000       1.67910000
H        1.79340000       1.37530000       1.90660000
H        0.27310000       1.01080000       2.71330000
