21
Properties=species:S:1:pos:R:3 gdb_100211=T pbc="F F F"
C       -0.08360000       1.54520000       0.13880000
C        0.03630000       0.02290000       0.04060000
C        0.73720000      -0.51640000      -1.23700000
C        0.78630000      -2.05910000      -1.17340000
C       -0.01540000      -0.06770000      -2.53620000
C       -1.41380000      -0.47550000      -2.58130000
C       -2.56810000      -0.81160000      -2.61290000
C        2.10530000       0.00500000      -1.31970000
C        3.22840000       0.42800000      -1.39910000
H        0.89450000       2.02640000       0.04430000
H       -0.74160000       1.95350000      -0.63480000
H       -0.50720000       1.82980000       1.10680000
H        0.59500000      -0.35470000       0.90440000
H       -0.95980000      -0.43100000       0.08360000
H       -0.22890000      -2.46540000      -1.15330000
H        1.30810000      -2.46950000      -2.04260000
H        1.31430000      -2.38790000      -0.27440000
H        0.05300000       1.02090000      -2.63100000
H        0.51710000      -0.48230000      -3.39990000
H       -3.58800000      -1.10440000      -2.65130000
H        4.22170000       0.79810000      -1.46280000
