14
Properties=species:S:1:pos:R:3 gdb_127956=T pbc="F F F"
C       -0.03090000       1.43030000       0.15270000
N        0.11370000      -0.01070000       0.05590000
C        0.62850000      -0.51030000      -0.98690000
N        0.74030000      -1.92590000      -1.01690000
N        1.23920000      -2.64780000      -1.99080000
N        1.67820000      -2.05330000      -3.03330000
C        1.58370000      -0.65350000      -3.03950000
O        2.06110000      -0.11550000      -4.15690000
N        1.10910000       0.11700000      -2.12570000
H        0.50620000       1.78570000       1.04000000
H        0.33540000       1.97350000      -0.72480000
H       -1.08850000       1.67510000       0.30570000
H        0.40670000      -2.44420000      -0.21480000
H        2.36760000      -0.84740000      -4.71230000
