18
Properties=species:S:1:pos:R:3 gdb_68464=T pbc="F F F"
O        0.08400000       1.40090000       0.01930000
C        0.00960000       0.02260000       0.06280000
C        0.24740000      -0.74590000       1.39690000
C       -0.68700000      -1.83350000       0.79780000
C       -1.36590000      -0.70360000      -0.02530000
C        0.10760000      -2.75660000      -0.13100000
N        0.92310000      -1.94530000      -1.03210000
C        0.92990000      -0.58870000      -0.99930000
O        1.59700000       0.12060000      -1.73620000
H        0.71770000       1.59630000      -0.69370000
H        1.27070000      -1.02030000       1.66790000
H       -0.22930000      -0.21640000       2.22480000
H       -1.30320000      -2.42040000       1.47940000
H       -2.11180000      -0.16710000       0.56540000
H       -1.77070000      -0.94060000      -1.01310000
H        0.75210000      -3.42300000       0.45770000
H       -0.57660000      -3.38820000      -0.71350000
H        1.51620000      -2.38690000      -1.71870000
