19
Properties=species:S:1:pos:R:3 gdb_82578=T pbc="F F F"
O       -0.27020000       1.45630000       0.01840000
C       -0.15210000       0.05980000       0.01250000
C       -0.43260000      -0.78660000       1.21860000
C       -1.52300000      -0.13620000       2.07850000
C       -2.47970000      -0.12520000       0.85120000
C       -3.86910000      -0.78460000       0.96100000
O       -4.53250000       0.42790000       0.56140000
C       -3.27070000       1.11430000       0.39480000
C       -1.38870000      -0.77260000      -0.00190000
H        0.46480000       1.81710000       0.52550000
H        0.64560000      -0.32080000      -0.62650000
H        0.25020000      -1.56120000       1.54810000
H       -1.88760000      -0.79500000       2.87070000
H       -1.27730000       0.83830000       2.51160000
H       -4.05560000      -1.60810000       0.25730000
H       -4.16330000      -1.10730000       1.96940000
H       -3.18990000       1.99310000       1.04600000
H       -3.10140000       1.42240000      -0.64330000
H       -1.56460000      -1.52740000      -0.76080000
