21
Properties=species:S:1:pos:R:3 gdb_38725=T pbc="F F F"
C       -0.01790000       1.51290000       0.12730000
C        1.33500000       0.83410000       0.01060000
O        2.12980000       0.34420000       1.06910000
C        1.62990000      -0.99940000       1.27960000
C        0.11960000      -0.77770000       1.24480000
C        0.08010000       0.01620000      -0.07420000
C       -0.00840000      -0.91830000      -1.26130000
C        1.34240000      -1.70510000      -1.25740000
C        1.96740000      -2.00180000       0.14670000
H       -0.38950000       1.85350000       1.08850000
H       -0.27680000       2.15940000      -0.70750000
H        1.90220000       1.05920000      -0.88850000
H        2.04790000      -1.34090000       2.23090000
H       -0.46500000      -1.69990000       1.19350000
H       -0.21750000      -0.19340000       2.10420000
H       -0.87100000      -1.59020000      -1.17590000
H       -0.11460000      -0.38600000      -2.21270000
H        1.24030000      -2.64710000      -1.80730000
H        2.06360000      -1.10680000      -1.82280000
H        3.05360000      -2.08890000       0.03770000
H        1.61570000      -2.97760000       0.50630000
