15
Properties=species:S:1:pos:R:3 gdb_52958=T pbc="F F F"
C        0.02540000       1.42410000       0.07580000
C       -0.00890000      -0.02760000       0.01300000
C       -0.03590000      -1.23130000      -0.03130000
C       -0.04820000      -2.64420000      -0.09480000
C       -0.38330000      -3.53000000      -1.24680000
C       -1.16280000      -3.67460000       0.06240000
C       -0.23990000      -4.29390000       1.07570000
O       -0.26390000      -5.17170000       1.87360000
O        0.80290000      -3.41020000       0.82690000
H        0.74850000       1.75930000       0.82700000
H        0.31670000       1.85920000      -0.88630000
H       -0.95290000       1.83360000       0.35000000
H       -0.94910000      -3.06980000      -2.05040000
H        0.32610000      -4.29440000      -1.54680000
H       -2.23320000      -3.55430000       0.13680000
