15
Properties=species:S:1:pos:R:3 gdb_24972=T pbc="F F F"
N       -0.08550000       1.25340000      -0.09530000
C       -0.00460000      -0.00660000      -0.04920000
N       -1.10090000      -0.88400000      -0.11030000
C       -0.60330000      -2.14530000       0.13380000
C        0.71810000      -2.09290000       0.25440000
C        1.30140000      -3.44790000       0.03400000
C       -0.02620000      -4.26280000       0.23350000
O       -1.16980000      -3.36000000       0.01100000
O        1.14330000      -0.77200000       0.08710000
H        0.83530000       1.67770000      -0.02380000
H       -2.03080000      -0.54330000       0.06740000
H        1.72450000      -3.57880000      -0.97260000
H        2.05570000      -3.77490000       0.75700000
H       -0.14260000      -5.09670000      -0.45840000
H       -0.09830000      -4.62390000       1.26320000
