19
Properties=species:S:1:pos:R:3 gdb_105593=T pbc="F F F"
C       -0.47290000       1.60360000      -0.01880000
C       -0.08160000       0.12110000       0.05960000
C        0.71990000      -0.42060000      -1.14010000
C        0.88780000      -1.96390000      -1.27620000
C        0.36070000      -1.92310000      -2.74150000
C       -0.07240000      -0.48040000      -2.49430000
O       -0.82070000       0.28280000      -3.02970000
C        2.02460000       0.31680000      -1.37590000
O        3.06800000      -0.21620000      -1.66310000
H        0.39160000       2.26840000       0.06450000
H       -0.98280000       1.82240000      -0.96020000
H       -1.15060000       1.85240000       0.80320000
H        0.48990000      -0.07320000       0.97620000
H       -0.99400000      -0.48170000       0.13900000
H        1.91310000      -2.31140000      -1.15860000
H        0.22460000      -2.50820000      -0.60150000
H        1.16690000      -1.97050000      -3.48100000
H       -0.43160000      -2.61370000      -3.03880000
H        1.95440000       1.42060000      -1.29860000
