15
Properties=species:S:1:pos:R:3 gdb_49927=T pbc="F F F"
O        0.25070000      -0.18010000      -0.27120000
C       -0.01970000       0.98250000      -0.15710000
C        1.00490000       2.09440000       0.09210000
O        2.26800000       1.57360000       0.44620000
C        3.22990000       1.84250000      -0.58440000
C        2.48850000       2.71850000      -1.57280000
C        1.23380000       2.88300000      -1.17770000
C        4.42490000       2.48170000      -0.03020000
C        5.41650000       3.00490000       0.40080000
H       -1.06690000       1.35910000      -0.24330000
H        0.61390000       2.72500000       0.90890000
H        3.52570000       0.88900000      -1.04950000
H        2.96560000       3.13470000      -2.44940000
H        0.45950000       3.45350000      -1.67310000
H        6.29230000       3.46360000       0.78930000
