17
Properties=species:S:1:pos:R:3 gdb_64107=T pbc="F F F"
C       -0.16880000       1.54430000       0.05310000
C       -0.00490000       0.02970000      -0.01200000
O       -1.30900000      -0.52190000      -0.14530000
C        0.86700000      -0.40850000      -1.18170000
O        0.94190000      -1.84290000      -1.19760000
C        1.26130000      -2.51350000      -0.05810000
O        1.57850000      -3.66260000      -0.09600000
O        1.16980000      -1.85040000       1.10980000
C        0.68780000      -0.49840000       1.24470000
H        0.79780000       2.05140000       0.11720000
H       -0.69570000       1.89510000      -0.83780000
H       -0.76650000       1.81990000       0.92660000
H       -1.22740000      -1.42080000      -0.48490000
H        0.42340000      -0.12990000      -2.13960000
H        1.87560000       0.01660000      -1.11470000
H        1.54960000       0.12600000       1.50450000
H       -0.01220000      -0.50790000       2.08340000
