24
Properties=species:S:1:pos:R:3 gdb_102531=T pbc="F F F"
C        0.07860000       1.56230000       0.05260000
C        0.01180000       0.03710000      -0.04840000
C       -1.41580000      -0.53690000       0.04230000
C       -1.42390000      -2.06280000      -0.17510000
C       -2.82290000      -2.68160000      -0.20270000
N       -2.09570000      -0.14650000       1.27930000
C       -1.57660000      -0.57870000       2.56760000
C       -3.22240000       0.62530000       1.25210000
O       -3.85310000       0.99820000       2.21990000
H        1.10940000       1.91510000      -0.04670000
H       -0.51270000       2.03770000      -0.73800000
H       -0.30690000       1.92020000       1.01180000
H        0.43580000      -0.28810000      -1.00590000
H        0.64090000      -0.41940000       0.72580000
H       -2.00590000      -0.08470000      -0.76610000
H       -0.91390000      -2.26140000      -1.12510000
H       -0.81340000      -2.54690000       0.59720000
H       -3.34920000      -2.53130000       0.74450000
H       -3.43660000      -2.23790000      -0.99460000
H       -2.76950000      -3.75840000      -0.38890000
H       -0.56100000      -0.20470000       2.73650000
H       -2.23780000      -0.17400000       3.33380000
H       -1.56150000      -1.67110000       2.64760000
H       -3.51220000       0.88560000       0.21540000
