20
Properties=species:S:1:pos:R:3 gdb_61965=T pbc="F F F"
C       -0.18030000       1.53370000       0.06560000
N       -0.02690000       0.08260000       0.07480000
C        0.70170000      -0.40680000       1.24140000
C        2.21410000      -0.11400000       1.15020000
C        2.94560000      -0.68360000       2.27400000
C        3.52000000      -1.16770000       3.21230000
C       -1.30640000      -0.57680000      -0.12190000
C       -1.78390000      -0.43650000      -1.56060000
O       -2.93770000      -0.41930000      -1.89790000
H        0.79530000       2.02500000       0.08450000
H       -0.68690000       1.84980000      -0.85160000
H       -0.77130000       1.90470000       0.92360000
H        0.30860000       0.00800000       2.18710000
H        0.57240000      -1.49160000       1.29490000
H        2.58990000      -0.52060000       0.20400000
H        2.39210000       0.96700000       1.11560000
H        4.04130000      -1.58910000       4.03560000
H       -1.17910000      -1.65500000       0.04750000
H       -2.10990000      -0.23610000       0.55480000
H       -0.94840000      -0.37800000      -2.29550000
