20
Properties=species:S:1:pos:R:3 gdb_7644=T pbc="F F F"
C       -0.20300000       1.47470000      -0.04970000
C        0.01740000      -0.03870000      -0.06220000
O        0.70080000      -0.45560000      -1.24310000
C        0.73060000      -0.53950000       1.18830000
C       -0.02660000      -0.52410000       2.54820000
C        0.63980000      -1.88910000       2.87040000
O       -0.06380000      -2.87050000       3.58710000
C        0.92260000      -2.07180000       1.35680000
H        0.75610000       2.00480000       0.01110000
H       -0.71070000       1.79250000      -0.96430000
H       -0.80710000       1.78240000       0.80990000
H       -0.95730000      -0.54060000      -0.12720000
H        1.56190000      -0.02280000      -1.24900000
H        1.69310000      -0.01950000       1.28510000
H        0.13360000       0.30880000       3.23640000
H       -1.10590000      -0.65030000       2.39400000
H        1.57190000      -1.73900000       3.42390000
H       -0.87970000      -3.05730000       3.11060000
H        0.10520000      -2.61740000       0.86950000
H        1.86910000      -2.52370000       1.05420000
