16
Properties=species:S:1:pos:R:3 gdb_38094=T pbc="F F F"
C       -0.09410000       1.41530000       0.04680000
C        1.34700000       0.87240000       0.00820000
C        2.03440000       0.52610000       1.28920000
C        1.44740000      -0.49530000       1.92260000
C        0.20560000      -0.95910000       1.19050000
N        0.21110000      -2.31290000       0.58570000
C       -0.02650000      -2.12890000      -0.64650000
O       -0.18050000      -0.86350000      -1.13970000
C        0.15070000      -0.04150000      -0.03220000
H       -0.49000000       1.83040000       0.96940000
H       -0.42240000       1.91380000      -0.85950000
H        1.92400000       1.10120000      -0.88090000
H        2.91240000       1.05460000       1.64320000
H        1.75090000      -0.91470000       2.87380000
H       -0.67190000      -0.89280000       1.84900000
H       -0.14020000      -2.90800000      -1.39150000
