17
Properties=species:S:1:pos:R:3 gdb_30140=T pbc="F F F"
C       -0.09850000       1.50590000      -0.23250000
C       -0.03320000       0.02470000       0.02080000
O        1.24760000      -0.60830000      -0.07070000
C        0.60750000      -0.58840000       1.20870000
C        1.27900000       0.17690000       2.27870000
C        2.44540000       0.87340000       2.18290000
O        2.77260000       1.43010000       3.37900000
C        1.79710000       1.08070000       4.25740000
C        0.85890000       0.31250000       3.64830000
H        0.65740000       2.04060000       0.34630000
H        0.06160000       1.71640000      -1.29510000
H       -1.08670000       1.89140000       0.04070000
H       -0.83230000      -0.55770000      -0.44330000
H        0.21530000      -1.55780000       1.52400000
H        3.13500000       1.03430000       1.37240000
H        1.91510000       1.45280000       5.26160000
H       -0.02470000      -0.10690000       4.10400000
