16
Properties=species:S:1:pos:R:3 gdb_123662=T pbc="F F F"
C        0.00160000       1.47480000       0.10680000
C        1.30770000       0.72460000      -0.00910000
N        2.08560000       0.38970000       1.18630000
C        1.23230000      -0.38630000       1.99440000
C        1.17740000      -1.04090000       3.20070000
N       -0.01340000      -1.73030000       3.16630000
N       -0.72130000      -1.55810000       2.02590000
C        0.04120000      -0.73250000       1.32690000
C       -0.01360000      -0.04480000       0.01670000
H       -0.26530000       1.92840000       1.05540000
H       -0.32330000       2.02370000      -0.77060000
H        1.88960000       0.82350000      -0.91860000
H        2.51380000       1.19100000       1.63360000
H        1.83510000      -1.09520000       4.05230000
H       -0.38780000      -2.32760000       3.88200000
H       -0.41770000      -0.52710000      -0.86450000
