20
Properties=species:S:1:pos:R:3 gdb_85661=T pbc="F F F"
C       -0.03480000       1.56580000      -0.07950000
C        0.03760000       0.03820000       0.02320000
C        0.74990000      -0.63130000      -1.17960000
C        1.49050000      -1.86120000      -0.58110000
C        2.75710000      -2.15800000      -1.25190000
N        3.76300000      -2.38800000      -1.77350000
C        1.64290000      -1.49510000       0.89840000
C        2.53430000      -2.27630000       1.80840000
C        0.83650000      -0.47710000       1.19770000
H        0.96870000       2.00070000      -0.13960000
H       -0.59170000       1.87400000      -0.97050000
H       -0.53730000       1.99670000       0.79260000
H       -0.99290000      -0.34260000       0.09950000
H        0.07180000      -0.90960000      -1.98930000
H        1.49060000       0.06100000      -1.59140000
H        0.86990000      -2.76600000      -0.66540000
H        3.57200000      -2.26070000       1.45540000
H        2.50810000      -1.87850000       2.82580000
H        2.23470000      -3.33170000       1.84690000
H        0.72080000      -0.06850000       2.19690000
