19
Properties=species:S:1:pos:R:3 gdb_50769=T pbc="F F F"
O       -0.65230000       0.67440000       0.62890000
C        0.13320000       0.92480000      -0.24430000
C        1.33650000       1.84930000      -0.06700000
O        2.46540000       1.04180000      -0.26250000
C        3.66620000       1.40920000       0.41620000
C        3.97350000       2.91460000       0.42370000
C        3.54890000       3.65940000      -0.85250000
C        2.04800000       3.96760000      -0.90540000
O        1.21200000       2.82710000      -1.06050000
H        0.05980000       0.49530000      -1.26550000
H        1.31410000       2.28840000       0.94270000
H        3.64670000       1.02720000       1.44700000
H        4.45160000       0.86710000      -0.11960000
H        3.49560000       3.39440000       1.28680000
H        5.05250000       3.02320000       0.58290000
H        4.07450000       4.62100000      -0.89510000
H        3.83690000       3.09510000      -1.74660000
H        1.75660000       4.51870000       0.00400000
H        1.82190000       4.60320000      -1.76610000
