21
Properties=species:S:1:pos:R:3 gdb_84094=T pbc="F F F"
C       -0.04360000       1.50130000       0.03810000
C       -0.03800000       0.00560000      -0.02080000
C       -0.01070000      -0.76330000      -1.11360000
C       -0.00710000      -2.24710000      -0.79320000
O        1.00450000      -2.98720000      -1.46860000
C        0.08160000      -2.26310000       0.73460000
C        1.28510000      -1.61020000       1.38300000
C       -0.01380000      -0.83870000       1.23240000
C       -0.81480000      -0.42460000       2.44430000
H        0.82170000       1.87860000       0.59800000
H       -0.02280000       1.94030000      -0.96260000
H       -0.93520000       1.87790000       0.55460000
H        0.04030000      -0.40530000      -2.13630000
H       -0.93930000      -2.72400000      -1.12220000
H        1.85420000      -2.64840000      -1.16510000
H       -0.39440000      -3.07370000       1.27420000
H        1.54960000      -1.96580000       2.37440000
H        2.13330000      -1.30950000       0.77470000
H       -0.46720000       0.53300000       2.84870000
H       -1.87870000      -0.31750000       2.20280000
H       -0.72780000      -1.16850000       3.24200000
