21
Properties=species:S:1:pos:R:3 gdb_87637=T pbc="F F F"
C       -0.01420000       1.51030000      -0.18910000
C        0.10320000       0.00740000      -0.06710000
C        1.45810000      -0.66650000      -0.09660000
C        0.65990000      -0.63850000       1.17340000
C        1.01570000       0.07870000       2.49030000
C        0.24550000      -1.03870000       3.21850000
O       -0.12930000      -1.19050000       4.34510000
C        0.05070000      -1.85050000       1.92170000
C       -1.36240000      -2.32880000       1.60890000
H        0.82570000       2.01560000       0.29880000
H       -0.01900000       1.81950000      -1.23990000
H       -0.93750000       1.88080000       0.27080000
H       -0.69900000      -0.54390000      -0.55300000
H        1.55730000      -1.61170000      -0.62210000
H        2.33680000      -0.03020000      -0.15800000
H        2.08250000       0.09120000       2.74010000
H        0.61390000       1.08510000       2.64440000
H        0.74420000      -2.70320000       1.92430000
H       -2.06830000      -1.49270000       1.59010000
H       -1.40780000      -2.83310000       0.63820000
H       -1.69780000      -3.03570000       2.37350000
