16
Properties=species:S:1:pos:R:3 gdb_19125=T pbc="F F F"
C       -0.16320000      -1.27540000       0.57110000
C       -0.10410000      -0.10590000       0.30050000
C       -0.08360000       1.30120000      -0.03200000
C        0.70940000       2.22080000       0.81220000
O        1.18950000       1.81370000      -0.46730000
C       -1.27980000       1.79760000      -0.79850000
C       -1.18500000       3.05440000      -1.62090000
C       -1.28280000       1.71290000      -2.30370000
H       -0.20280000      -2.30950000       0.81030000
H        0.39320000       3.26020000       0.88460000
H        1.26010000       1.82600000       1.66350000
H       -2.22130000       1.59770000      -0.29620000
H       -2.04500000       3.71420000      -1.63930000
H       -0.22260000       3.55140000      -1.65760000
H       -0.38480000       1.33640000      -2.78050000
H       -2.20810000       1.44210000      -2.79900000
