17
Properties=species:S:1:pos:R:3 gdb_45050=T pbc="F F F"
O        0.04150000       0.18550000      -0.67770000
C       -0.01040000       1.25840000      -0.12780000
C       -1.27010000       1.93590000       0.43230000
C       -0.79700000       3.28190000       0.94800000
N        0.16180000       3.16480000       2.06280000
C        0.66690000       3.43620000       0.69860000
C        1.16800000       2.19150000       0.03870000
C        2.52150000       1.59350000       0.20130000
N        2.15840000       2.25300000      -1.05180000
H       -2.00150000       2.03550000      -0.37750000
H       -1.71960000       1.31060000       1.20950000
H       -1.46530000       4.13530000       0.91390000
H        0.16420000       4.02750000       2.60180000
H        1.12410000       4.38990000       0.46160000
H        3.25070000       2.12080000       0.80940000
H        2.57780000       0.50870000       0.22000000
H        1.90740000       1.53940000      -1.73680000
