20
Properties=species:S:1:pos:R:3 gdb_14148=T pbc="F F F"
C       -0.07110000       1.51290000      -0.14760000
C        0.04570000       0.01180000      -0.00510000
C        1.38110000      -0.68220000      -0.14580000
C        0.68800000      -0.64330000       1.19320000
C        1.26530000       0.12310000       2.39010000
C        0.74310000      -0.69220000       3.58690000
O        0.60510000      -2.02120000       3.10680000
C        0.06980000      -1.91130000       1.79780000
H        0.82520000       2.02330000       0.21880000
H       -0.20190000       1.79530000      -1.19800000
H       -0.92890000       1.90620000       0.41030000
H       -0.80420000      -0.53400000      -0.41300000
H        1.42800000      -1.62770000      -0.67800000
H        2.25940000      -0.05550000      -0.27600000
H        2.35950000       0.11120000       2.36870000
H        0.94230000       1.16670000       2.43460000
H        1.42280000      -0.71120000       4.44240000
H       -0.23100000      -0.30090000       3.92610000
H       -1.03010000      -1.82340000       1.83860000
H        0.32090000      -2.82600000       1.25240000
