20
Properties=species:S:1:pos:R:3 gdb_114714=T pbc="F F F"
C        0.16090000       1.60230000      -0.08070000
C       -0.03270000       0.10180000       0.15680000
N        0.71090000      -0.40710000       1.29250000
C        2.14550000      -0.64470000       1.24970000
C        2.47930000      -1.15730000       2.64600000
C        2.12280000      -0.26250000       3.79500000
C        1.16370000      -1.35510000       3.36490000
C        0.08630000      -0.91310000       2.41300000
O       -1.11490000      -0.97820000       2.58070000
H        1.20750000       1.84980000      -0.28560000
H       -0.43150000       1.92750000      -0.94170000
H       -0.16150000       2.17600000       0.79310000
H       -1.08310000      -0.11900000       0.36480000
H        0.25570000      -0.46080000      -0.74250000
H        2.39180000      -1.39490000       0.48290000
H        2.69720000       0.27130000       1.00140000
H        3.29660000      -1.85940000       2.75090000
H        2.64890000      -0.41990000       4.73010000
H        1.85060000       0.76980000       3.59700000
H        0.94310000      -2.18040000       4.02800000
