25
Properties=species:S:1:pos:R:3 gdb_101820=T pbc="F F F"
C        0.70280000       1.83540000      -0.41970000
C        0.25820000       0.39400000      -0.16340000
C        0.68120000      -0.58140000      -1.26370000
C        0.34420000      -2.03150000      -0.90670000
O        0.01600000      -0.17670000      -2.45940000
C        0.62330000      -0.59760000      -3.66000000
C       -0.23670000      -0.14270000      -4.84300000
C       -0.40370000       1.37200000      -4.90680000
O        0.30120000      -0.67600000      -6.04880000
H        1.79550000       1.91050000      -0.46270000
H        0.30410000       2.19850000      -1.37000000
H        0.35560000       2.50310000       0.37460000
H        0.66800000       0.03710000       0.78910000
H       -0.83440000       0.34800000      -0.07250000
H        1.77060000      -0.49060000      -1.41770000
H        0.62460000      -2.72080000      -1.70820000
H        0.87870000      -2.33950000      -0.00230000
H       -0.73050000      -2.13660000      -0.72660000
H        1.63780000      -0.16600000      -3.75260000
H        0.72670000      -1.69100000      -3.71050000
H       -1.22220000      -0.61120000      -4.74020000
H        0.57190000       1.86390000      -5.01860000
H       -1.02820000       1.65080000      -5.75990000
H       -0.86370000       1.74610000      -3.98900000
H        1.11170000      -0.19310000      -6.24510000
