16
Properties=species:S:1:pos:R:3 gdb_18815=T pbc="F F F"
O        0.00320000       0.00950000       0.15780000
C       -0.01430000       1.20510000       0.02820000
C       -1.27160000       2.09830000      -0.02910000
C       -0.73270000       3.45440000      -0.44680000
C        0.38980000       4.11230000       0.34110000
C        1.15740000       3.08500000       1.17170000
C        1.18330000       2.13830000      -0.08930000
C        0.69220000       3.34450000      -0.93490000
H       -1.96830000       1.69080000      -0.76910000
H       -1.78540000       2.08290000       0.93840000
H       -1.38890000       4.14350000      -0.96580000
H        0.39190000       5.18360000       0.50370000
H        2.16890000       3.42880000       1.39810000
H        0.70020000       2.69910000       2.08990000
H        2.12190000       1.63860000      -0.31500000
H        1.06350000       3.67180000      -1.89630000
