25
Properties=species:S:1:pos:R:3 gdb_103421=T pbc="F F F"
C        0.71460000      -0.97140000       1.31610000
C       -0.01050000      -0.32620000       0.12840000
C        0.67050000      -0.55540000      -1.22960000
C        2.02370000       0.15760000      -1.30370000
C        0.79610000      -2.01980000      -1.70450000
C       -0.54280000      -2.66340000      -1.92780000
C       -0.01150000      -1.71390000      -2.96520000
C       -0.18670000      -0.25010000      -2.53590000
C       -1.59910000       0.31920000      -2.44280000
H        0.83880000      -2.04840000       1.16010000
H        1.70740000      -0.54100000       1.47710000
H        0.14460000      -0.83360000       2.24030000
H       -1.03350000      -0.71510000       0.09720000
H       -0.10810000       0.75430000       0.30000000
H        2.71450000      -0.19770000      -0.53170000
H        2.50210000      -0.01660000      -2.27330000
H        1.90480000       1.23990000      -1.17530000
H        1.70050000      -2.61160000      -1.61430000
H       -0.50580000      -3.71210000      -2.20660000
H       -1.40280000      -2.40900000      -1.31500000
H        0.17570000      -2.04220000      -3.98110000
H        0.40470000       0.40240000      -3.18660000
H       -2.26750000      -0.31050000      -1.84820000
H       -1.59870000       1.31950000      -1.99570000
H       -2.03790000       0.40580000      -3.44330000
