18
Properties=species:S:1:pos:R:3 gdb_85248=T pbc="F F F"
C        0.04950000       1.48000000       0.00300000
N        0.06720000       0.02870000       0.04950000
C        0.57490000      -0.61840000      -1.16200000
C        1.14910000      -1.94260000      -0.67000000
O        1.21510000      -2.99250000      -1.26630000
C        1.47510000      -1.79630000       0.77390000
O        1.57090000      -2.96200000       1.50610000
C        2.26960000      -0.56430000       1.18060000
C        0.75600000      -0.53450000       1.19540000
H        1.05360000       1.92870000      -0.10930000
H       -0.56750000       1.81290000      -0.83740000
H       -0.39620000       1.86990000       0.92320000
H       -0.21400000      -0.79030000      -1.90030000
H        1.37490000      -0.04330000      -1.66410000
H        1.52130000      -3.67630000       0.85270000
H        2.76260000      -0.67620000       2.14050000
H        2.82560000       0.00080000       0.43960000
H        0.23450000      -0.47510000       2.14490000
