14
Properties=species:S:1:pos:R:3 gdb_46472=T pbc="F F F"
N       -0.06290000       1.23560000       0.34440000
C       -0.01770000       0.02700000      -0.01150000
O        1.08620000      -0.63640000      -0.46070000
C        0.82680000      -2.03240000      -0.72980000
C       -0.66860000      -2.22170000      -0.56360000
C       -1.52630000      -3.12200000      -1.35270000
O       -1.16810000      -3.43370000      -0.01140000
C       -1.19950000      -0.91930000      -0.01710000
O       -2.32360000      -0.68730000       0.33090000
H        0.85730000       1.67540000       0.26760000
H        1.19120000      -2.25080000      -1.73670000
H        1.37860000      -2.64250000      -0.00770000
H       -2.56840000      -2.84690000      -1.50420000
H       -1.06700000      -3.74130000      -2.12200000
