15
Properties=species:S:1:pos:R:3 gdb_125653=T pbc="F F F"
C       -0.01840000       1.50440000      -0.05270000
C       -0.00730000       0.01320000       0.03370000
N       -0.03590000      -0.74130000      -1.06360000
N       -0.01650000      -2.04080000      -0.66880000
C        0.02470000      -2.14730000       0.68950000
C        0.03170000      -0.83950000       1.16920000
N        0.07300000      -0.94350000       2.52920000
N        0.09240000      -2.23670000       2.93090000
C        0.06380000      -2.98410000       1.82930000
H        0.87640000       1.94160000       0.40540000
H       -0.05220000       1.81030000      -1.10010000
H       -0.88840000       1.93160000       0.45950000
H       -0.03430000      -2.75810000      -1.37040000
H        0.09040000      -0.22310000       3.22840000
H        0.07240000      -4.05950000       1.91190000
