18
Properties=species:S:1:pos:R:3 gdb_91552=T pbc="F F F"
O       -0.00970000       1.44950000      -0.06080000
C        0.04100000       0.05150000      -0.00360000
C        0.33010000      -0.65070000       1.38190000
C       -1.04170000      -1.31490000       1.27690000
N       -2.01970000      -0.19870000       1.16860000
C       -1.31180000      -0.68090000      -0.04600000
C       -2.04210000      -1.13720000      -1.24780000
C       -2.00370000      -0.35570000      -2.49340000
O       -1.23310000      -1.55280000      -2.35170000
H       -0.72300000       1.70570000       0.54020000
H        0.71910000      -0.28750000      -0.78840000
H        1.16500000      -1.35220000       1.32730000
H        0.46280000       0.02360000       2.23140000
H       -1.35500000      -2.28330000       1.64710000
H       -2.95760000      -0.60000000       1.16180000
H       -2.91050000      -1.77310000      -1.06050000
H       -2.83480000      -0.41550000      -3.19430000
H       -1.43050000       0.56940000      -2.51250000
