21
Properties=species:S:1:pos:R:3 gdb_84092=T pbc="F F F"
C        0.61700000       1.55120000       0.08440000
C        0.09810000       0.10880000      -0.02200000
C        0.66530000      -0.64820000      -1.19880000
C        1.54300000      -1.60020000      -0.86000000
C        2.31330000      -2.51040000      -1.76480000
C        1.73110000      -1.62740000       0.63810000
O        2.98270000      -1.04050000       1.04640000
C        0.52660000      -0.80550000       1.17390000
O        0.82680000      -0.13810000       2.37460000
H        1.71220000       1.58380000       0.10980000
H        0.28950000       2.15010000      -0.77140000
H        0.25080000       2.01770000       1.00200000
H       -0.99680000       0.15490000      -0.08180000
H        0.38850000      -0.41530000      -2.22370000
H        2.12200000      -2.29070000      -2.81860000
H        3.39130000      -2.42330000      -1.58370000
H        2.05280000      -3.56080000      -1.58290000
H        1.75690000      -2.63620000       1.06220000
H        3.17410000      -0.32110000       0.43340000
H       -0.29630000      -1.50260000       1.37380000
H        1.79430000      -0.09780000       2.40740000
