19
Properties=species:S:1:pos:R:3 gdb_74219=T pbc="F F F"
C       -0.21500000       1.49300000       0.08990000
C       -0.01460000      -0.00250000       0.01500000
C       -0.13440000      -0.63700000      -1.17890000
C       -0.00940000      -2.03940000      -1.60040000
O       -0.01410000      -2.33280000      -2.79040000
N        0.12260000      -3.04340000      -0.66070000
C       -0.12710000      -2.95600000       0.75890000
C        0.74760000      -1.90380000       1.45030000
N        0.25930000      -0.55730000       1.23860000
H        0.70860000       1.99470000       0.40460000
H       -0.51420000       1.90020000      -0.87520000
H       -0.98910000       1.74190000       0.82560000
H       -0.34760000      -0.00730000      -2.03330000
H        0.12430000      -3.95830000      -1.08520000
H       -1.18130000      -2.74570000       0.99270000
H        0.11200000      -3.93300000       1.18870000
H        0.73850000      -2.08330000       2.52990000
H        1.78100000      -2.02720000       1.09390000
H        0.45240000       0.09770000       1.97760000
