21
Properties=species:S:1:pos:R:3 gdb_96469=T pbc="F F F"
O        0.25100000       1.30480000      -0.31090000
C        0.02370000      -0.07280000      -0.05890000
C        0.74170000      -0.46710000       1.24710000
O        0.55600000       0.51870000       2.25440000
C       -0.69970000       0.51730000       2.93090000
C       -1.85680000       1.08680000       2.09930000
C       -2.37830000       0.12530000       1.04290000
C       -2.53530000       0.52460000      -0.40600000
C       -1.45710000      -0.44720000      -0.01120000
H        0.47090000       1.69400000       0.54670000
H        0.48400000      -0.63120000      -0.88600000
H        0.40280000      -1.45420000       1.59380000
H        1.82340000      -0.50590000       1.08180000
H       -0.93650000      -0.50390000       3.26870000
H       -0.53750000       1.13560000       3.82000000
H       -2.67250000       1.35380000       2.78340000
H       -1.52120000       2.02450000       1.64370000
H       -3.12200000      -0.57210000       1.42100000
H       -3.39330000       0.15970000      -0.96000000
H       -2.19760000       1.51710000      -0.68240000
H       -1.62660000      -1.49200000      -0.26100000
