23
Properties=species:S:1:pos:R:3 gdb_84377=T pbc="F F F"
C       -0.31790000       1.51860000      -0.05140000
C       -0.05360000       0.00270000       0.00570000
C        0.80790000      -0.46320000      -1.14640000
C        2.00780000      -0.88520000      -0.75440000
C        2.20130000      -0.79020000       0.74220000
C        3.26360000       0.25930000       1.11800000
C        0.76630000      -0.47880000       1.22410000
C        0.48040000       0.00580000       2.62090000
C        0.11450000      -1.40250000       2.22460000
H        0.61780000       2.08460000      -0.00950000
H       -0.83010000       1.78660000      -0.98200000
H       -0.95030000       1.84540000       0.78010000
H       -1.02950000      -0.50220000      -0.01180000
H        0.46750000      -0.40860000      -2.17550000
H        2.79840000      -1.22830000      -1.41410000
H        2.53260000      -1.75470000       1.15180000
H        2.97990000       1.25390000       0.76050000
H        3.40420000       0.31490000       2.20220000
H        4.23140000       0.00620000       0.67140000
H        1.31490000       0.14570000       3.30020000
H       -0.32230000       0.72160000       2.76540000
H       -0.93690000      -1.63960000       2.09300000
H        0.70610000      -2.21760000       2.63000000
