19
Properties=species:S:1:pos:R:3 gdb_109073=T pbc="F F F"
C        0.17140000       1.52050000      -0.19090000
C       -0.08190000       0.03540000       0.12450000
C        0.61660000      -0.43490000       1.35750000
C        0.14950000      -0.96700000       2.49170000
C        1.38080000      -1.39890000       3.27210000
C        1.98660000      -2.60700000       2.48620000
O        2.43850000      -1.97300000       1.28410000
C        2.13780000      -0.57070000       1.50680000
O        2.34730000      -0.39950000       2.88620000
H        1.23780000       1.72480000      -0.33020000
H       -0.34590000       1.81380000      -1.10930000
H       -0.18610000       2.15920000       0.62230000
H       -1.15820000      -0.14320000       0.22420000
H        0.25720000      -0.57340000      -0.72520000
H       -0.87360000      -1.19940000       2.75540000
H        1.31860000      -1.49890000       4.35360000
H        2.84110000      -3.03870000       3.01810000
H        1.25250000      -3.38700000       2.26120000
H        2.80610000       0.04000000       0.90300000
