10
Properties=species:S:1:pos:R:3 gdb_926=T pbc="F F F"
O       -0.04300000      -0.02970000       0.00330000
C        0.04630000       1.15790000       0.00860000
O       -1.20130000       1.88250000       0.02910000
C       -1.21940000       3.20800000       0.03660000
C       -0.08650000       3.94530000       0.02550000
C        1.12970000       3.20260000       0.00520000
N        1.20570000       1.90420000      -0.00290000
H       -2.22750000       3.61170000       0.05220000
H       -0.10910000       5.02520000       0.03170000
H        2.07960000       3.73790000      -0.00460000
