15
Properties=species:S:1:pos:R:3 gdb_9810=T pbc="F F F"
C        0.09890000       1.49640000      -0.28820000
C        0.04650000      -0.00230000      -0.06700000
C        1.35380000      -0.79370000       0.02320000
C        0.55000000      -0.58360000       1.25650000
C       -1.07590000      -0.76940000      -0.66810000
O       -1.23380000      -1.96520000      -0.56680000
C       -2.06060000       0.01900000      -1.44530000
N       -2.83690000       0.62160000      -2.05470000
H        0.97540000       1.91700000       0.21160000
H        0.16940000       1.74670000      -1.35140000
H       -0.78690000       1.99660000       0.11550000
H        1.34600000      -1.78300000      -0.41890000
H        2.26340000      -0.22120000      -0.11830000
H        0.88860000       0.13810000       1.99120000
H       -0.00080000      -1.43100000       1.64740000
