15
Properties=species:S:1:pos:R:3 gdb_3440=T pbc="F F F"
O        0.15390000       1.40230000      -0.21950000
C        0.03440000      -0.00270000      -0.03510000
C        0.66490000      -0.51620000       1.25200000
C       -0.16610000      -1.29630000       1.94460000
C       -1.50500000      -1.39790000       1.28440000
C       -2.26020000      -0.08460000       1.21010000
C       -1.40200000      -0.53310000       0.04860000
H       -0.34600000       1.82590000       0.48710000
H        0.54140000      -0.42590000      -0.91140000
H        1.66750000      -0.22530000       1.54350000
H        0.05550000      -1.77360000       2.89300000
H       -2.05930000      -2.32920000       1.29930000
H       -3.33420000      -0.12110000       1.06040000
H       -1.92400000       0.72200000       1.85540000
H       -1.90760000      -0.80240000      -0.87030000
