21
Properties=species:S:1:pos:R:3 gdb_91940=T pbc="F F F"
C       -0.92730000       1.09830000      -0.03700000
C        0.08640000      -0.04200000      -0.11400000
C        1.21410000       0.18350000      -1.15830000
C        2.40680000      -0.58600000      -0.61810000
O        3.05980000       0.10100000       0.46060000
C        2.15810000      -0.96120000       0.77910000
C        0.77950000      -0.47110000       1.23220000
C        0.90210000       0.63160000       2.28580000
O        0.13190000      -1.61650000       1.79230000
H       -0.45380000       2.04340000       0.24790000
H       -1.40760000       1.25020000      -1.00940000
H       -1.72270000       0.88920000       0.68740000
H       -0.44280000      -0.95310000      -0.41740000
H        0.91280000      -0.17390000      -2.14780000
H        1.47600000       1.24320000      -1.25960000
H        3.06820000      -1.14480000      -1.27540000
H        2.58650000      -1.82840000       1.27530000
H        1.46520000       1.48360000       1.89920000
H       -0.08510000       0.98440000       2.60410000
H        1.42450000       0.24380000       3.16520000
H       -0.70160000      -1.32630000       2.17650000
