22
Properties=species:S:1:pos:R:3 gdb_63814=T pbc="F F F"
C       -0.10680000       1.59290000      -0.01930000
C        0.02500000       0.07160000      -0.01240000
C       -1.36540000      -0.55860000      -0.17760000
C        1.04370000      -0.62260000      -0.99700000
C        1.60710000      -1.46230000       0.18960000
C        2.83200000      -0.92810000       0.95150000
C        2.91150000       0.53760000       0.97240000
N        1.96370000      -0.10630000       1.90810000
C        0.74320000      -0.65140000       1.17670000
H        0.84320000       2.11410000       0.10860000
H       -0.54880000       1.93260000      -0.96350000
H       -0.76830000       1.92300000       0.78980000
H       -1.80650000      -0.27230000      -1.13910000
H       -1.31760000      -1.65260000      -0.14640000
H       -2.04330000      -0.23070000       0.61850000
H        0.56200000      -1.21340000      -1.78060000
H        1.76840000       0.04180000      -1.47490000
H        1.53980000      -2.54630000       0.11430000
H        3.63280000      -1.55710000       1.32930000
H        3.74820000       0.97940000       1.50670000
H        2.56990000       1.12890000       0.13300000
H        0.09240000      -1.11870000       1.91800000
