21
Properties=species:S:1:pos:R:3 gdb_92687=T pbc="F F F"
C       -0.03060000       1.57980000       0.01890000
C        0.00690000       0.05050000      -0.01120000
C        0.70610000      -0.48790000      -1.26820000
C        0.90970000      -1.97620000      -1.22530000
C        0.90330000      -2.71690000      -0.10530000
C        1.07640000      -4.21020000      -0.09100000
C        0.73140000      -2.05910000       1.21950000
O        0.66930000      -2.71030000       2.24470000
C        0.68520000      -0.53680000       1.23360000
H        0.98250000       1.99800000       0.04990000
H       -0.53040000       1.98140000      -0.86920000
H       -0.56840000       1.94460000       0.89990000
H       -1.02790000      -0.32010000      -0.03110000
H        0.13580000      -0.22060000      -2.16660000
H        1.68410000       0.00680000      -1.38750000
H        1.07420000      -2.47180000      -2.18130000
H        1.94300000      -4.49700000       0.51370000
H        0.21090000      -4.69530000       0.37160000
H        1.20420000      -4.60500000      -1.10220000
H        1.72550000      -0.17890000       1.28280000
H        0.19790000      -0.22110000       2.16050000
