18
Properties=species:S:1:pos:R:3 gdb_14142=T pbc="F F F"
C       -0.09880000       1.55240000       0.00420000
C       -0.08780000       0.05000000       0.12410000
O        1.13210000      -0.62340000      -0.20260000
C        0.66520000      -0.67910000       1.16210000
C        1.52100000      -0.02450000       2.25620000
C        1.51790000      -1.02980000       3.44140000
C        0.71380000      -2.20020000       2.92820000
C        0.25190000      -2.00340000       1.69430000
H        0.80610000       1.99210000       0.43000000
H       -0.15790000       1.84960000      -1.04830000
H       -0.96960000       1.97260000       0.51970000
H       -0.97750000      -0.44140000      -0.27900000
H        2.52860000       0.14270000       1.86750000
H        1.12390000       0.94920000       2.55490000
H        2.52960000      -1.33400000       3.73630000
H        1.05970000      -0.59780000       4.33980000
H        0.54270000      -3.08930000       3.52510000
H       -0.34460000      -2.69430000       1.11050000
