16
Properties=species:S:1:pos:R:3 gdb_34503=T pbc="F F F"
C        0.09680000      -1.19010000      -0.01230000
C       -0.00270000       0.01150000      -0.01100000
C       -0.05620000       1.41980000      -0.03450000
C       -1.12070000       2.23080000       0.09620000
C       -0.65310000       3.63630000       0.06820000
C        0.52200000       4.04970000       0.92350000
C        1.37660000       2.88900000       1.39920000
C        1.18060000       2.30580000      -0.03760000
N        0.70580000       3.68100000      -0.52480000
H        0.16710000      -2.24950000      -0.01000000
H       -2.15140000       1.93010000       0.22320000
H       -1.32140000       4.43090000      -0.24860000
H        0.60960000       5.07610000       1.26790000
H        2.40660000       3.21990000       1.54700000
H        1.05340000       2.28820000       2.25380000
H        2.05180000       1.91610000      -0.56000000
