19
Properties=species:S:1:pos:R:3 gdb_83564=T pbc="F F F"
C        0.03080000       1.47610000       0.89690000
C        0.09180000       0.02160000       0.46220000
C        0.73210000      -0.40140000      -0.90600000
C        2.14640000       0.16830000      -0.75770000
O        2.43210000      -0.20860000       0.61070000
C        1.22620000      -0.89730000       0.98420000
C        0.98130000      -1.82110000      -0.24200000
C       -0.18040000      -2.77120000      -0.25140000
O       -1.10880000      -2.77930000       0.52110000
H        1.02530000       1.92280000       0.96890000
H       -0.56810000       2.07250000       0.19960000
H       -0.43880000       1.55610000       1.88270000
H       -0.87140000      -0.47130000       0.58950000
H        0.22730000      -0.28320000      -1.86450000
H        2.87770000      -0.28780000      -1.43420000
H        2.18960000       1.25710000      -0.87020000
H        1.30430000      -1.26270000       2.00630000
H        1.86910000      -2.34190000      -0.61580000
H       -0.12750000      -3.52500000      -1.07040000
