21
Properties=species:S:1:pos:R:3 gdb_116848=T pbc="F F F"
C        0.03360000       1.55530000       0.00990000
C        0.03130000       0.02570000       0.00170000
C       -1.39760000      -0.55450000       0.01250000
C       -1.44080000      -2.00940000       0.00510000
C       -1.47040000      -3.21700000      -0.00110000
C       -1.49900000      -4.66680000      -0.00860000
O       -2.54150000      -5.28850000      -0.00180000
C       -0.13570000      -5.34300000      -0.02540000
C       -0.21680000      -6.86710000      -0.03320000
H        1.05480000       1.94720000       0.00210000
H       -0.48480000       1.95850000      -0.86720000
H       -0.46760000       1.94910000       0.90110000
H        0.55860000      -0.34850000      -0.88270000
H        0.57560000      -0.35790000       0.87180000
H       -1.93910000      -0.18710000       0.89490000
H       -1.95600000      -0.17770000      -0.85540000
H        0.41040000      -4.96260000      -0.89930000
H        0.42690000      -4.97250000       0.84230000
H        0.78530000      -7.30470000      -0.04510000
H       -0.74580000      -7.23470000       0.84970000
H       -0.76230000      -7.22480000      -0.91000000
