15
Properties=species:S:1:pos:R:3 gdb_44288=T pbc="F F F"
N       -0.05590000       1.30450000       0.09370000
C       -0.01260000       0.04730000       0.01910000
O        1.13350000      -0.71660000      -0.07040000
C        0.71350000      -2.07940000      -0.16560000
C       -0.06560000      -2.40750000      -1.44040000
C       -1.21880000      -2.94330000      -0.67670000
C       -0.64250000      -2.23670000       0.58660000
C       -1.17490000      -0.90810000       0.01660000
N       -1.33840000      -1.61200000      -1.33480000
H        0.88580000       1.70140000       0.06170000
H        1.53730000      -2.73920000       0.09790000
H        0.29730000      -2.63040000      -2.43440000
H       -1.89310000      -3.76950000      -0.84740000
H       -0.69290000      -2.52450000       1.63330000
H       -2.12060000      -0.49560000       0.35620000
