18
Properties=species:S:1:pos:R:3 gdb_80268=T pbc="F F F"
C       -0.25510000       1.36140000       0.12960000
N       -0.01660000      -0.06920000       0.03950000
C        0.50960000      -0.67050000      -1.16840000
C        0.97590000       0.12910000      -2.37180000
C        2.05280000       1.19230000      -2.13440000
O        2.25000000       2.06920000      -2.95270000
C        2.86650000       1.06330000      -0.91180000
C        2.56000000       0.19980000       0.07050000
C        1.35010000      -0.64590000       0.07960000
H        0.50470000       2.00510000      -0.33350000
H       -1.21670000       1.57390000      -0.34780000
H       -0.33150000       1.63710000       1.18580000
H        0.02360000      -1.61060000      -1.42620000
H        1.40700000      -0.57470000      -3.09610000
H        0.13900000       0.60970000      -2.88930000
H        3.74080000       1.70420000      -0.85760000
H        3.21610000       0.11720000       0.93410000
H        1.40950000      -1.53350000       0.70390000
