21
Properties=species:S:1:pos:R:3 gdb_39114=T pbc="F F F"
C       -0.01550000       1.48610000       0.07380000
C        1.30290000       0.79810000      -0.08540000
O        1.78440000       0.34110000       1.17990000
C        0.63530000      -0.53920000       1.31030000
C        0.03760000      -0.03400000      -0.00650000
C       -0.72030000      -0.83600000      -1.01390000
C       -0.26850000      -2.27780000      -1.39930000
C       -1.76540000      -2.68020000      -1.48290000
C       -2.10960000      -1.43330000      -0.62640000
H       -0.23990000       1.99290000       1.00900000
H       -0.40990000       1.96530000      -0.81770000
H        2.02760000       0.97520000      -0.87240000
H        0.95700000      -1.58640000       1.27980000
H        0.06970000      -0.35460000       2.23180000
H       -0.83020000      -0.24080000      -1.92780000
H        0.34960000      -2.39140000      -2.29320000
H        0.23320000      -2.78070000      -0.56720000
H       -2.15220000      -2.58910000      -2.50210000
H       -2.04980000      -3.65940000      -1.09160000
H       -2.14890000      -1.67870000       0.44010000
H       -3.00160000      -0.85630000      -0.88180000
