23
Properties=species:S:1:pos:R:3 gdb_100790=T pbc="F F F"
C        0.01300000       1.38700000       0.04600000
O        0.05810000      -0.01970000       0.01780000
C        0.75270000      -0.61990000       1.10860000
C       -0.14580000      -0.68630000       2.34730000
C        1.22870000      -2.00120000       0.60100000
C        2.19440000      -1.83820000      -0.57870000
C        1.80480000      -2.82270000       1.74180000
C        3.00810000      -3.65980000       1.64900000
O        3.05360000      -2.38790000       2.29890000
H        1.02260000       1.82630000       0.06620000
H       -0.49310000       1.71050000      -0.86740000
H       -0.54750000       1.77860000       0.90780000
H        1.64550000      -0.01790000       1.34450000
H       -0.98760000      -1.36650000       2.17960000
H        0.41090000      -1.02190000       3.22620000
H       -0.55330000       0.30140000       2.57980000
H        0.32760000      -2.52680000       0.25400000
H        2.36660000      -2.78940000      -1.09030000
H        1.77680000      -1.13490000      -1.30030000
H        3.15940000      -1.45260000      -0.23370000
H        1.07940000      -3.11520000       2.50170000
H        3.10770000      -4.52260000       2.30700000
H        3.56230000      -3.72550000       0.71600000
