15
Properties=species:S:1:pos:R:3 gdb_44522=T pbc="F F F"
N       -0.10830000       1.20580000       0.28830000
C       -0.04000000      -0.02980000       0.03320000
O        1.14870000      -0.71770000      -0.22220000
C        0.79060000      -2.03200000      -0.61130000
C        1.03280000      -3.39080000       0.10600000
N        0.31390000      -3.43450000       1.39160000
C       -0.45950000      -3.61420000       0.12230000
C       -0.66260000      -2.17840000      -0.30230000
C       -1.16780000      -0.99800000       0.04900000
H        0.82220000       1.62560000       0.29410000
H        1.03980000      -2.18100000      -1.67080000
H        1.82990000      -4.08910000      -0.11650000
H        0.47090000      -4.36580000       1.78150000
H       -1.03640000      -4.50720000      -0.07170000
H       -2.13680000      -0.72570000       0.43970000
