18
Properties=species:S:1:pos:R:3 gdb_53348=T pbc="F F F"
C        0.27550000       1.58800000      -0.22280000
C        0.13300000       0.14610000      -0.08920000
C        0.00610000      -1.04660000       0.01630000
C       -0.10760000      -2.48810000       0.16280000
C        0.44290000      -3.05590000       1.51520000
N       -0.70460000      -3.70780000       2.14820000
C       -1.69190000      -3.56110000       1.36340000
C       -3.08200000      -4.05060000       1.58540000
O       -1.50580000      -2.89590000       0.18660000
H        0.85490000       1.84980000      -1.11470000
H       -0.70410000       2.07060000      -0.31030000
H        0.78280000       2.02190000       0.64570000
H        0.34870000      -2.98870000      -0.69770000
H        1.24960000      -3.77760000       1.35140000
H        0.83260000      -2.25950000       2.15570000
H       -3.13900000      -4.57070000       2.54090000
H       -3.78310000      -3.21030000       1.57950000
H       -3.37880000      -4.72750000       0.77820000
