23
Properties=species:S:1:pos:R:3 gdb_70243=T pbc="F F F"
C       -0.04280000       1.54470000       0.03650000
C       -0.04830000       0.04240000       0.10970000
C       -1.22820000      -0.75510000      -0.42230000
C       -1.04920000      -2.21690000       0.10040000
C       -2.39770000      -2.83710000       0.49170000
C       -0.37820000      -3.09410000      -0.97180000
C       -0.11540000      -2.06600000       1.34560000
C        0.61220000      -0.75430000       1.15370000
O        1.21650000      -0.60470000      -0.14210000
H        0.86210000       1.94890000       0.49730000
H       -0.07260000       1.88290000      -1.00530000
H       -0.91580000       1.96380000       0.54830000
H       -2.15260000      -0.31140000      -0.03130000
H       -1.29160000      -0.71640000      -1.51550000
H       -3.06250000      -2.91610000      -0.37610000
H       -2.26380000      -3.84660000       0.89680000
H       -2.90920000      -2.23650000       1.25200000
H        0.58550000      -2.67640000      -1.26860000
H       -0.21420000      -4.11000000      -0.59410000
H       -1.01270000      -3.16980000      -1.86260000
H       -0.70090000      -2.00920000       2.27220000
H        0.56920000      -2.91490000       1.44840000
H        1.16660000      -0.30260000       1.97430000
