19
Properties=species:S:1:pos:R:3 gdb_39734=T pbc="F F F"
C       -0.21140000       1.36480000      -0.31860000
C        1.20230000       0.91900000       0.03770000
C        0.09130000      -0.07700000      -0.09620000
C       -0.31340000      -1.06670000       1.03250000
C       -1.27640000      -2.28140000       0.68220000
C       -2.16670000      -2.33870000      -0.57400000
C       -1.33050000      -1.46170000      -1.50040000
C       -0.09260000      -1.30190000      -0.98670000
C        0.13100000      -2.24550000       0.21340000
H       -0.78080000       1.89420000       0.43900000
H       -0.39630000       1.70460000      -1.33270000
H        1.95880000       0.95120000      -0.73900000
H        1.57060000       1.15440000       1.03160000
H       -0.08620000      -0.89660000       2.08280000
H       -1.54770000      -2.86170000       1.56310000
H       -2.33550000      -3.38390000      -0.87170000
H       -3.15520000      -1.87710000      -0.45990000
H       -1.81440000      -0.68300000      -2.08350000
H        0.94610000      -2.93850000       0.37400000
