16
Properties=species:S:1:pos:R:3 gdb_127721=T pbc="F F F"
C       -0.03460000       1.44980000      -0.00920000
N       -0.02320000      -0.00180000       0.07550000
N       -0.07770000      -0.73370000      -1.03340000
N       -0.05380000      -2.00280000      -0.69220000
C        0.01720000      -2.09770000       0.65660000
C        0.05970000      -3.42070000       1.34810000
C        0.03840000      -0.80710000       1.17930000
C        0.10780000      -0.33120000       2.54990000
O        0.11980000       0.83630000       2.88390000
H        0.87270000       1.86030000       0.43640000
H       -0.09120000       1.70150000      -1.06780000
H       -0.89440000       1.85180000       0.52890000
H        0.97560000      -3.54310000       1.93530000
H       -0.78820000      -3.55120000       2.02840000
H        0.02380000      -4.21320000       0.59830000
H        0.15100000      -1.14600000       3.30170000
