19
Properties=species:S:1:pos:R:3 gdb_100640=T pbc="F F F"
C       -0.02060000       1.53750000       0.01100000
C        0.02900000       0.00480000       0.01090000
O        0.73810000      -0.37120000       1.19400000
C       -1.35190000      -0.52820000       0.07860000
N       -2.42030000      -0.96430000       0.14790000
C        0.74470000      -0.54030000      -1.25870000
N        2.10200000      -0.00390000      -1.28250000
C        0.69300000      -2.07300000      -1.35700000
O        1.39720000      -2.41880000      -2.54030000
H        0.99760000       1.91840000      -0.06520000
H       -0.59850000       1.89980000      -0.84230000
H       -0.48440000       1.89000000       0.93410000
H        0.59530000      -1.30920000       1.36100000
H        0.20920000      -0.14790000      -2.13270000
H        2.57140000      -0.27510000      -0.42170000
H        2.60150000      -0.44950000      -2.04630000
H        1.17450000      -2.52120000      -0.47060000
H       -0.34810000      -2.42290000      -1.39480000
H        1.37630000      -3.37450000      -2.64140000
