14
Properties=species:S:1:pos:R:3 gdb_13756=T pbc="F F F"
N       -0.04760000       1.35890000      -0.49850000
C       -0.06900000       0.32830000       0.39480000
O        0.85000000       0.09320000       1.15310000
C       -1.34930000      -0.47400000       0.37720000
N       -1.20560000      -1.92920000       0.44370000
C       -1.80380000      -1.24090000       1.59100000
C       -1.02160000      -1.28370000       2.87270000
O       -1.52770000      -1.00800000       3.93210000
H        0.79750000       1.90230000      -0.56920000
H       -0.75710000       1.48400000      -1.19860000
H       -2.15180000      -0.07300000      -0.24050000
H       -1.91920000      -2.38210000      -0.12070000
H       -2.88120000      -1.27650000       1.74090000
H        0.02660000      -1.60840000       2.76510000
