14
Properties=species:S:1:pos:R:3 gdb_49820=T pbc="F F F"
O        0.00700000      -0.01700000       0.11260000
C        0.03420000       1.19390000       0.07520000
N        1.17140000       1.92550000      -0.08100000
C        2.47340000       1.26680000      -0.16420000
C        3.48530000       2.38890000      -0.02700000
O        4.67950000       2.30270000       0.01720000
C        2.69260000       3.72800000       0.02960000
O        3.18020000       4.81660000       0.13350000
C        1.21340000       3.38470000      -0.09400000
H       -0.86660000       1.83180000       0.16830000
H        2.58990000       0.52150000       0.62950000
H        2.61350000       0.74050000      -1.11780000
H        0.82250000       3.81610000      -1.02630000
H        0.65360000       3.82690000       0.73750000
