23
Properties=species:S:1:pos:R:3 gdb_118439=T pbc="F F F"
C       -0.42640000       1.58850000       1.03550000
C       -0.57240000       0.10360000       1.31930000
O        0.70600000      -0.49910000       1.17320000
C        0.74010000      -1.88850000       1.35130000
C        2.06850000      -2.39970000       0.76600000
C        2.20800000      -2.09550000      -0.72730000
C        0.59790000      -2.29420000       2.83190000
C        0.51480000      -3.78460000       3.12870000
O        0.55800000      -1.46880000       3.71280000
H       -0.04230000       1.75430000       0.02470000
H       -1.39510000       2.08920000       1.12630000
H        0.26780000       2.04410000       1.74690000
H       -0.95560000      -0.05740000       2.33400000
H       -1.28140000      -0.35850000       0.61120000
H       -0.09390000      -2.36960000       0.80400000
H        2.88420000      -1.92550000       1.32450000
H        2.14540000      -3.47850000       0.93810000
H        1.42970000      -2.60380000      -1.30780000
H        2.11720000      -1.02240000      -0.90740000
H        3.17910000      -2.43040000      -1.10400000
H       -0.01700000      -4.33450000       2.34670000
H        1.52690000      -4.20080000       3.19160000
H        0.02630000      -3.93280000       4.09310000
