20
Properties=species:S:1:pos:R:3 gdb_84820=T pbc="F F F"
C       -0.08870000       1.46930000       0.35310000
C        0.10640000      -0.03310000       0.13510000
C        0.75410000      -0.42320000      -1.17800000
C        1.58550000      -1.45550000      -1.04150000
C        1.63700000      -1.93910000       0.39030000
C        1.01730000      -0.75810000       1.18190000
N        2.07310000       0.09930000       1.70430000
C        2.02880000       0.67480000       2.93430000
O        1.13500000       0.53650000       3.74380000
H        0.85330000       2.01600000       0.25070000
H       -0.79120000       1.87340000      -0.38290000
H       -0.48780000       1.67120000       1.35140000
H       -0.88570000      -0.50770000       0.18680000
H        0.51720000       0.07550000      -2.11200000
H        2.13010000      -1.93900000      -1.84470000
H        1.03580000      -2.85010000       0.51500000
H        2.64400000      -2.18170000       0.74670000
H        0.44490000      -1.07770000       2.05280000
H        2.84130000       0.33700000       1.09570000
H        2.92830000       1.29300000       3.12940000
