16
Properties=species:S:1:pos:R:3 gdb_79104=T pbc="F F F"
C        0.08660000       1.58340000      -0.01100000
C        0.07960000       0.06640000      -0.05760000
C        0.68300000      -0.69840000      -1.22860000
C        2.19180000      -0.83560000      -1.03520000
O        2.88110000       0.07180000      -0.19530000
C        2.21060000       0.08590000       1.00860000
O        2.55550000       0.74490000       1.93640000
N        1.01510000      -0.72390000       0.90370000
C        1.28670000      -1.67100000      -0.22300000
H        1.05410000       2.00670000      -0.29000000
H       -0.66370000       1.96190000      -0.71310000
H       -0.17490000       1.93880000       0.99010000
H       -0.92290000      -0.30990000       0.16100000
H        0.22070000      -0.89890000      -2.18790000
H        2.80120000      -1.22080000      -1.84070000
H        1.25150000      -2.74410000      -0.09270000
