20
Properties=species:S:1:pos:R:3 gdb_94658=T pbc="F F F"
C       -0.04180000       1.59720000      -0.14140000
C        0.11790000       0.08840000      -0.09610000
O        1.30200000      -0.36580000      -0.79730000
C        1.88730000      -0.90630000       0.40180000
C        0.61150000      -0.57050000       1.22310000
N        0.66900000       0.25990000       2.40340000
C        1.12280000      -0.40890000       3.61300000
C        0.82260000       0.43870000       4.83940000
O        1.49070000       0.44870000       5.83910000
H        0.85500000       2.11150000       0.21900000
H       -0.21170000       1.91700000      -1.17380000
H       -0.89540000       1.91400000       0.46560000
H       -0.77950000      -0.38910000      -0.51100000
H        2.14550000      -1.96680000       0.29440000
H        2.78570000      -0.35230000       0.71200000
H        0.03490000      -1.46500000       1.47600000
H        1.23500000       1.08370000       2.22900000
H        0.53910000      -1.33500000       3.72870000
H        2.18540000      -0.69800000       3.63550000
H       -0.09790000       1.05610000       4.73290000
