19
Properties=species:S:1:pos:R:3 gdb_103280=T pbc="F F F"
C        0.02460000       1.35510000      -0.14250000
C        0.04160000      -0.13110000       0.14000000
O        0.99320000      -0.82370000      -0.74450000
C        1.82010000      -1.15360000       0.37910000
C        0.82120000      -0.57570000       1.37560000
C        1.06720000      -2.07140000       1.28210000
O        0.11840000      -2.94840000       0.73630000
C        1.79680000      -2.73520000       2.42510000
O        2.41820000      -3.93480000       2.01080000
H        1.02470000       1.78430000      -0.03240000
H       -0.32500000       1.54230000      -1.16210000
H       -0.65330000       1.86330000       0.55220000
H       -0.95950000      -0.56660000       0.03790000
H        2.89620000      -1.09090000       0.25990000
H        0.96480000       0.01010000       2.27530000
H        0.09900000      -2.76120000      -0.21310000
H        2.58230000      -2.07450000       2.80730000
H        1.08370000      -2.91450000       3.24610000
H        1.74290000      -4.41590000       1.51690000
