20
Properties=species:S:1:pos:R:3 gdb_53499=T pbc="F F F"
C       -0.37110000       1.57500000      -0.60010000
C       -0.23370000       0.15180000      -0.32510000
C       -0.11390000      -1.02130000      -0.08100000
C        0.03730000      -2.44760000       0.20470000
N       -1.21240000      -3.19850000       0.07100000
C       -1.79580000      -3.23620000      -1.25610000
C       -1.68730000      -3.86990000       1.17290000
C       -2.97220000      -4.66990000       1.00390000
O       -1.11340000      -3.83260000       2.24940000
H        0.25840000       2.16920000       0.07130000
H       -0.08070000       1.81650000      -1.62850000
H       -1.40580000       1.90650000      -0.46020000
H        0.79310000      -2.87980000      -0.46790000
H        0.37730000      -2.60530000       1.23090000
H       -2.79570000      -3.66450000      -1.23260000
H       -1.86780000      -2.21910000      -1.65570000
H       -1.18080000      -3.83020000      -1.94740000
H       -2.87610000      -5.44410000       0.23660000
H       -3.18370000      -5.14210000       1.96250000
H       -3.81610000      -4.02910000       0.72960000
