15
Properties=species:S:1:pos:R:3 gdb_133171=T pbc="F F F"
C       -0.00280000       1.53520000      -0.01480000
C       -0.05560000       0.03580000       0.00700000
C       -1.18630000      -0.69470000      -0.11820000
C       -1.17750000      -2.15000000      -0.08950000
N       -2.25840000      -2.83360000      -0.20970000
N        0.10740000      -2.67630000       0.07870000
N        1.26480000      -1.98960000       0.20770000
C        1.16630000      -0.71460000       0.17140000
F        2.29660000      -0.02010000       0.29720000
H        0.63880000       1.89160000      -0.82750000
H       -1.00070000       1.95810000      -0.14570000
H        0.42410000       1.92450000       0.91550000
H       -2.15740000      -0.23150000      -0.24630000
H       -2.07890000      -3.83810000      -0.16860000
H        0.22720000      -3.67700000       0.11210000
