23
Properties=species:S:1:pos:R:3 gdb_92624=T pbc="F F F"
C       -0.19990000       1.55920000       0.00270000
C        0.03630000       0.05060000       0.00600000
C        0.89900000      -0.47120000      -1.16150000
C        1.33670000      -1.88440000      -0.72880000
C        2.79430000      -2.30030000      -1.01300000
O        3.23030000      -3.00740000       0.13890000
C        2.68710000      -2.31470000       1.25340000
C        1.26300000      -1.89280000       0.83800000
C        0.78810000      -0.48340000       1.24260000
H        0.75040000       2.10450000       0.04940000
H       -0.72270000       1.87970000      -0.90480000
H       -0.80450000       1.87080000       0.86120000
H       -0.93900000      -0.45550000      -0.04160000
H        0.36700000      -0.45910000      -2.11780000
H        1.77770000       0.17890000      -1.27700000
H        0.65600000      -2.63500000      -1.13910000
H        2.91280000      -2.96380000      -1.87360000
H        3.42220000      -1.40720000      -1.17730000
H        2.72330000      -2.98950000       2.11260000
H        3.29690000      -1.42480000       1.48820000
H        0.54570000      -2.64610000       1.17450000
H        1.65270000       0.16450000       1.44440000
H        0.17070000      -0.47980000       2.14610000
