11
Properties=species:S:1:pos:R:3 gdb_21473=T pbc="F F F"
N       -0.15590000       1.26630000       0.01070000
C       -0.02500000       0.01810000       0.00230000
O       -1.17380000      -0.73960000       0.00800000
C       -1.06030000      -2.07300000      -0.00010000
N       -2.14150000      -2.84040000       0.00410000
N       -1.56830000      -4.04080000      -0.00690000
N       -0.25080000      -4.03780000      -0.01660000
N        0.09940000      -2.77310000      -0.01240000
H        0.76030000       1.71090000       0.00520000
H        0.88600000      -0.58080000      -0.00910000
H       -2.10430000      -4.89600000      -0.00750000
