21
Properties=species:S:1:pos:R:3 gdb_65660=T pbc="F F F"
O        0.05050000       1.39450000       0.32570000
C        0.02770000       0.00870000       0.07690000
C       -1.40150000      -0.48830000       0.13300000
C       -2.31180000       0.15490000      -0.90790000
C       -2.26350000      -0.36010000      -2.36570000
O       -3.67690000      -0.64470000      -2.36090000
C       -3.78290000      -0.31360000      -0.96120000
C        1.01640000      -0.58840000      -0.89000000
C        1.14550000      -0.84940000       0.60440000
H        0.89470000       1.75110000       0.03460000
H       -1.40810000      -1.57860000       0.01750000
H       -1.79660000      -0.27330000       1.13500000
H       -2.21750000       1.24020000      -0.84720000
H       -1.99310000       0.36720000      -3.14030000
H       -1.66590000      -1.27120000      -2.51360000
H       -4.00440000      -1.19850000      -0.34680000
H       -4.55120000       0.44620000      -0.77470000
H        0.70270000      -1.40320000      -1.53360000
H        1.74440000       0.07460000      -1.34960000
H        1.94920000      -0.34680000       1.13270000
H        0.91800000      -1.84240000       0.97770000
