16
Properties=species:S:1:pos:R:3 gdb_52295=T pbc="F F F"
O       -0.13220000       0.73200000      -1.06570000
C        0.01410000       1.30980000      -0.01040000
N        1.17670000       1.36890000       0.69660000
C        2.41680000       0.78640000       0.22240000
C        3.46190000       1.86810000      -0.02370000
O        3.78130000       2.61140000       1.18370000
C        5.18120000       2.25760000       1.15810000
C        4.93440000       1.42980000      -0.10960000
O        5.58170000       0.73660000      -0.82970000
H       -0.80340000       1.85290000       0.50250000
H        1.21220000       1.92610000       1.53590000
H        2.79770000       0.06240000       0.95250000
H        2.19380000       0.25840000      -0.70760000
H        3.14100000       2.53800000      -0.83230000
H        5.83970000       3.12530000       1.02680000
H        5.49880000       1.68960000       2.04120000
