19
Properties=species:S:1:pos:R:3 gdb_110875=T pbc="F F F"
C        0.37410000       1.49890000       0.24330000
C        0.21240000      -0.00070000       0.20980000
O        0.68250000      -0.53820000      -1.02190000
C        1.09580000      -1.85470000      -0.73730000
C        2.49910000      -2.01120000      -0.16600000
C        3.50940000      -0.87430000      -0.20300000
O        3.95750000      -0.49230000       1.08690000
C        1.29140000      -1.91840000       0.74260000
O        1.00080000      -0.62010000       1.22840000
H        1.42600000       1.76820000       0.12220000
H       -0.20650000       1.95070000      -0.56460000
H        0.01110000       1.88940000       1.19740000
H       -0.84060000      -0.29960000       0.35210000
H        0.62670000      -2.62570000      -1.33850000
H        2.90570000      -3.01620000      -0.24710000
H        4.39840000      -1.19700000      -0.75290000
H        3.07940000      -0.02520000      -0.74920000
H        3.16720000      -0.21290000       1.56500000
H        0.97610000      -2.73180000       1.38630000
