18
Properties=species:S:1:pos:R:3 gdb_76726=T pbc="F F F"
O       -0.88700000       1.56360000      -0.05180000
C       -0.50610000       0.21480000      -0.20540000
C       -0.40390000      -0.56850000       1.08110000
O       -0.61900000       0.12360000       2.27280000
C       -1.56280000      -0.81450000       0.12760000
C       -2.97100000      -0.42540000       0.51030000
O       -3.85180000      -0.41910000      -0.61770000
C       -3.83170000       0.68230000      -1.39650000
N       -4.56040000       0.73070000      -2.42760000
H       -0.08850000       2.10260000      -0.07100000
H        0.16810000       0.02220000      -1.03610000
H        0.35150000      -1.34090000       1.18880000
H       -0.79100000       1.04290000       2.02530000
H       -1.51160000      -1.72830000      -0.45780000
H       -3.39030000      -1.17020000       1.19080000
H       -2.99480000       0.54280000       1.01820000
H       -3.15090000       1.46370000      -1.03780000
H       -4.43660000       1.62940000      -2.88980000
