19
Properties=species:S:1:pos:R:3 gdb_85662=T pbc="F F F"
C        0.18180000       1.55340000      -0.14530000
C        0.05090000       0.03440000       0.01220000
N        0.67990000      -0.68380000      -1.11470000
C        1.43290000      -1.83310000      -0.61370000
C        2.74460000      -1.96110000      -1.28580000
N        3.77210000      -2.08760000      -1.79940000
C        1.56570000      -1.55720000       0.88100000
C        2.43900000      -2.39350000       1.75680000
C        0.78080000      -0.53200000       1.20000000
H        1.23550000       1.83700000      -0.21110000
H       -0.32070000       1.88870000      -1.05780000
H       -0.27590000       2.07350000       0.70320000
H       -1.02420000      -0.20820000       0.09450000
H        0.02850000      -0.93410000      -1.84520000
H        0.91860000      -2.79980000      -0.76510000
H        3.48050000      -2.36650000       1.41630000
H        2.40420000      -2.04830000       2.79270000
H        2.12920000      -3.44610000       1.73690000
H        0.65520000      -0.13150000       2.19930000
