16
Properties=species:S:1:pos:R:3 gdb_47797=T pbc="F F F"
N       -0.00990000       1.15180000       0.75890000
C        0.08070000       0.07650000       0.09500000
O        1.28540000      -0.50460000      -0.18150000
C        1.55310000      -0.98540000      -1.49440000
O        0.96060000      -2.20220000      -1.79380000
C       -0.34650000      -2.12410000      -2.32050000
C       -1.39320000      -1.60590000      -1.36050000
O       -1.31140000      -2.01660000      -0.00800000
C       -1.19040000      -0.61220000      -0.28670000
H        0.92480000       1.51280000       0.96200000
H        1.27150000      -0.21450000      -2.22930000
H        2.63230000      -1.14410000      -1.50410000
H       -0.36830000      -1.50630000      -3.23370000
H       -0.61010000      -3.14730000      -2.60690000
H       -2.39920000      -1.63730000      -1.78990000
H       -2.04850000      -0.01700000       0.01750000
