21
Properties=species:S:1:pos:R:3 gdb_106421=T pbc="F F F"
O       -0.08730000       1.41160000      -0.00500000
C       -0.03750000      -0.00870000       0.00510000
C       -1.44620000      -0.52550000       0.01810000
C       -2.54580000      -0.26920000       1.09920000
C       -3.21740000      -1.18880000       0.03480000
C       -2.55950000      -0.28640000      -1.05270000
C       -1.90800000      -1.99920000       0.03290000
C       -1.47110000      -3.20250000      -0.72610000
C       -1.46130000      -3.19020000       0.80550000
H        0.81560000       1.74220000      -0.01440000
H        0.48690000      -0.39710000      -0.88400000
H        0.49860000      -0.38400000       0.89290000
H       -2.37060000      -0.70670000       2.08530000
H       -2.92070000       0.75480000       1.16530000
H       -4.23570000      -1.57940000       0.04440000
H       -2.93540000       0.73640000      -1.13050000
H       -2.39690000      -0.73960000      -2.03390000
H       -2.22180000      -3.81210000      -1.22010000
H       -0.51090000      -3.19000000      -1.23360000
H       -0.49470000      -3.16960000       1.30040000
H       -2.20550000      -3.79180000       1.31880000
