14
Properties=species:S:1:pos:R:3 gdb_31900=T pbc="F F F"
C        0.07860000       1.36330000       0.08610000
N       -0.07360000      -0.07250000      -0.08160000
C       -1.28930000      -0.65070000      -0.02730000
N       -2.46010000      -0.06000000      -0.02780000
C       -3.35230000      -1.10630000      -0.01380000
C       -2.68870000      -2.29480000       0.00310000
O       -1.32610000      -1.99900000      -0.00450000
C       -3.08810000      -3.63870000       0.02920000
N       -3.43770000      -4.74470000       0.05100000
H        1.06580000       1.65690000      -0.27550000
H       -0.68320000       1.87230000      -0.50640000
H       -0.03030000       1.67860000       1.13140000
H        0.71030000      -0.67130000       0.12120000
H       -4.41950000      -0.94850000      -0.01240000
