12
Properties=species:S:1:pos:R:3 gdb_24746=T pbc="F F F"
O       -0.06100000      -0.02340000       0.00360000
C       -0.06900000       1.19280000       0.00680000
C        1.18730000       1.95970000       0.00050000
N        2.20780000       2.50180000      -0.00490000
C       -1.29070000       1.97750000       0.01700000
N       -1.41180000       3.29720000       0.02130000
C       -2.74830000       3.53630000       0.03090000
C       -3.45440000       2.34380000       0.03240000
N       -2.51310000       1.36390000       0.02360000
H       -3.14670000       4.53930000       0.03620000
H       -4.51040000       2.12850000       0.03880000
H       -2.64730000       0.36430000       0.02190000
