21
Properties=species:S:1:pos:R:3 gdb_114035=T pbc="F F F"
C       -0.00390000       1.57070000       0.33970000
C        0.16200000       0.08560000       0.08280000
C        0.60220000      -0.61840000      -1.19550000
C        1.76960000       0.05180000      -1.93420000
C        1.55470000       1.33520000      -2.71560000
O        2.81280000       1.70730000      -3.26680000
C        2.59480000       0.05910000      -0.60400000
C        1.44220000      -0.69500000       0.08070000
O        1.63860000      -1.81510000       0.87500000
H       -0.85360000       1.98040000      -0.21800000
H       -0.19320000       1.75220000       1.40410000
H        0.88230000       2.14830000       0.06820000
H       -0.62410000      -0.50980000       0.54700000
H       -0.03240000      -1.38280000      -1.62950000
H        2.22110000      -0.66900000      -2.62340000
H        0.80960000       1.15320000      -3.50820000
H        1.15640000       2.13220000      -2.07310000
H        2.69960000       2.53410000      -3.74430000
H        3.49680000      -0.55100000      -0.67160000
H        2.86430000       1.03690000      -0.19160000
H        1.68320000      -1.53050000       1.79420000
