19
Properties=species:S:1:pos:R:3 gdb_63092=T pbc="F F F"
C       -0.00380000       1.52380000       0.09410000
C        0.00960000       0.01680000      -0.06110000
C       -1.18030000      -0.68200000       0.56300000
C        0.68640000      -0.65010000      -1.20710000
C        1.67250000       0.12360000      -2.06480000
O        2.68790000       0.55700000      -1.15230000
C        2.45600000       0.04620000       0.10550000
N        3.19190000       0.24660000       1.10880000
N        1.28510000      -0.75230000       0.13810000
H        0.83850000       2.01700000      -0.39340000
H       -0.92870000       1.92760000      -0.33080000
H        0.02090000       1.79080000       1.15550000
H       -2.11120000      -0.35550000       0.08620000
H       -1.09490000      -1.76620000       0.46140000
H       -1.24430000      -0.44620000       1.63010000
H        0.27060000      -1.56430000      -1.62170000
H        2.12390000      -0.52330000      -2.82480000
H        1.24710000       1.00270000      -2.56070000
H        3.98170000       0.83710000       0.84920000
