22
Properties=species:S:1:pos:R:3 gdb_56670=T pbc="F F F"
C        0.04670000       1.63120000       0.02380000
C        0.08190000       0.09540000       0.15460000
C        0.66900000      -0.29960000       1.44120000
N        1.11680000      -0.61370000       2.46000000
C       -1.29210000      -0.58930000      -0.04990000
C       -2.32570000      -0.15780000       0.99250000
C       -1.84630000      -0.50520000      -1.50950000
C       -2.15660000      -2.02520000      -1.45590000
C       -1.23840000      -2.14300000      -0.21020000
H        1.05750000       2.04490000       0.05980000
H       -0.40570000       1.90980000      -0.93210000
H       -0.53280000       2.08870000       0.82860000
H        0.75210000      -0.29400000      -0.62300000
H       -2.54520000       0.91280000       0.92890000
H       -3.26800000      -0.69310000       0.84020000
H       -1.97750000      -0.37720000       2.00720000
H       -2.68440000       0.17630000      -1.67730000
H       -1.06150000      -0.27170000      -2.23610000
H       -3.20470000      -2.22950000      -1.22470000
H       -1.88010000      -2.61590000      -2.33140000
H       -0.23520000      -2.49550000      -0.46780000
H       -1.60140000      -2.73290000       0.63460000
