16
Properties=species:S:1:pos:R:3 gdb_126287=T pbc="F F F"
C        0.12090000       1.52980000       0.20210000
C       -0.06450000       0.01950000      -0.03310000
C        0.57880000      -0.46880000      -1.29340000
C        0.06280000      -0.77450000      -2.53540000
C        1.18460000      -1.14610000      -3.31600000
N        2.32220000      -1.07940000      -2.61510000
N        1.92260000      -0.66780000      -1.40630000
C        1.18640000      -1.55550000      -4.67890000
N        1.14280000      -1.88240000      -5.78800000
H        1.18020000       1.79460000       0.27700000
H       -0.30890000       2.10750000      -0.62100000
H       -0.36950000       1.83620000       1.13050000
H        0.33500000      -0.53840000       0.82310000
H       -1.13120000      -0.21790000      -0.08190000
H       -0.96930000      -0.74140000      -2.84210000
H        2.61890000      -0.54970000      -0.68770000
