18
Properties=species:S:1:pos:R:3 gdb_55644=T pbc="F F F"
C        0.37990000       1.26470000       0.57220000
C       -0.03090000      -0.13080000       0.06950000
N        0.35810000      -1.13810000       1.07740000
C       -1.55790000      -0.21860000      -0.19390000
C       -2.49060000       0.20110000       0.95530000
N       -2.18420000      -0.31170000       2.17680000
O       -3.46080000       0.90170000       0.74270000
C        0.66230000      -0.39710000      -1.21490000
N        1.21830000      -0.64300000      -2.19860000
H        1.46470000       1.32610000       0.69870000
H        0.07680000       2.03290000      -0.14240000
H       -0.10060000       1.46310000       1.53240000
H        0.24360000      -2.07370000       0.69580000
H        1.34260000      -1.03620000       1.30790000
H       -1.81660000       0.41970000      -1.03980000
H       -1.80590000      -1.24800000      -0.48040000
H       -1.29890000      -0.78210000       2.31670000
H       -2.75320000      -0.03010000       2.95870000
