18
Properties=species:S:1:pos:R:3 gdb_13642=T pbc="F F F"
C       -0.07150000       1.45370000      -0.30810000
C       -0.01830000       0.03060000      -0.00520000
C        0.03240000      -1.14690000       0.23880000
C        0.06000000      -2.57610000       0.53750000
C       -1.30560000      -3.22630000       0.37710000
O       -1.69010000      -3.63700000      -0.93510000
C       -1.51340000      -4.64990000       0.06400000
C       -0.41840000      -5.66370000      -0.15280000
H        0.66340000       1.72550000      -1.07390000
H       -1.05990000       1.74240000      -0.68260000
H        0.13600000       2.06070000       0.58030000
H        0.78260000      -3.07980000      -0.11220000
H        0.40080000      -2.73250000       1.57080000
H       -2.09610000      -2.71360000       0.92820000
H       -2.45560000      -5.08330000       0.40810000
H        0.51640000      -5.19940000      -0.47230000
H       -0.23250000      -6.22590000       0.76900000
H       -0.71890000      -6.37990000      -0.92460000
