20
Properties=species:S:1:pos:R:3 gdb_40188=T pbc="F F F"
C        0.03260000       1.49750000       0.00840000
O        1.22080000       0.70640000       0.07260000
C       -0.05340000       0.03370000       0.01700000
C       -0.38950000      -0.73610000       1.27450000
C        0.42430000      -2.03880000       1.27710000
C        0.28200000      -2.81900000      -0.01810000
C       -1.04560000      -3.03210000      -0.65410000
N       -0.06390000      -2.14850000      -1.28030000
C       -0.33820000      -0.70250000      -1.28370000
H       -0.21050000       2.05760000       0.91110000
H       -0.11490000       2.04330000      -0.92380000
H       -0.14440000      -0.13460000       2.15430000
H       -1.46600000      -0.94280000       1.31080000
H        1.48020000      -1.77720000       1.41220000
H        0.14420000      -2.67510000       2.12460000
H        1.03110000      -3.59940000      -0.14540000
H       -1.26200000      -3.95100000      -1.19410000
H       -1.91560000      -2.58180000      -0.17800000
H       -1.38840000      -0.55080000      -1.56460000
H        0.27730000      -0.24180000      -2.06410000
