20
Properties=species:S:1:pos:R:3 gdb_91598=T pbc="F F F"
C       -0.15370000       1.55530000       0.00770000
C        0.04820000       0.04080000       0.00110000
C        0.89720000      -0.51100000      -1.19620000
C        1.97430000      -1.36420000      -0.47800000
C        1.18500000      -1.94410000       0.71360000
C        0.80210000      -0.54860000       1.24520000
C        2.16860000       0.14950000       1.27240000
O        2.54290000       1.07310000       1.95920000
N        2.87670000      -0.46530000       0.25480000
H        0.79870000       2.09140000       0.05870000
H       -0.67740000       1.87800000      -0.89840000
H       -0.75170000       1.86920000       0.86950000
H       -0.93750000      -0.43770000      -0.01890000
H        0.29370000      -1.11740000      -1.87840000
H        1.35560000       0.29130000      -1.78210000
H        2.52190000      -2.06910000      -1.10390000
H        0.32250000      -2.54170000       0.40650000
H        1.81510000      -2.52130000       1.39390000
H        0.25750000      -0.47400000       2.18460000
H        3.63330000       0.03120000      -0.19260000
