16
Properties=species:S:1:pos:R:3 gdb_10973=T pbc="F F F"
C        0.04470000       1.53520000       0.07030000
C       -0.01280000       0.04050000      -0.01550000
C        0.56580000      -0.71620000      -1.23090000
C        0.44130000      -2.18150000      -0.69200000
C       -0.17510000      -1.85860000       0.68100000
O        0.60000000      -0.69360000       1.11330000
C       -1.25700000      -0.81290000       0.34040000
O       -2.42460000      -0.64280000       0.50440000
H        1.07850000       1.88950000       0.00680000
H       -0.51780000       1.97530000      -0.75870000
H       -0.39140000       1.88780000       1.00820000
H       -0.00990000      -0.53880000      -2.14370000
H        1.60290000      -0.42280000      -1.41120000
H       -0.20250000      -2.81890000      -1.30410000
H        1.41210000      -2.66860000      -0.58090000
H       -0.28540000      -2.63420000       1.43580000
