20
Properties=species:S:1:pos:R:3 gdb_85143=T pbc="F F F"
C       -0.44630000       1.47380000      -0.19800000
N       -0.14550000       0.07540000       0.01490000
C       -1.21990000      -0.81700000       0.49700000
C       -0.17090000      -1.46050000       1.41710000
O       -0.12410000      -2.42960000       2.11540000
C        0.80430000      -0.33310000       1.06740000
C        2.29210000      -0.65670000       0.80250000
C        2.59900000      -0.21790000       2.25950000
C        1.25140000       0.55060000       2.28070000
H        0.46640000       2.01520000      -0.46670000
H       -1.14660000       1.57480000      -1.03350000
H       -0.89450000       1.97100000       0.68170000
H       -2.01440000      -0.31640000       1.07640000
H       -1.68490000      -1.45270000      -0.26430000
H        2.53090000      -1.68030000       0.50500000
H        2.70820000       0.03770000       0.06610000
H        2.58290000      -1.06880000       2.94390000
H        3.50770000       0.36160000       2.43120000
H        1.37500000       1.59370000       1.97430000
H        0.64630000       0.51610000       3.18980000
