17
Properties=species:S:1:pos:R:3 gdb_36745=T pbc="F F F"
N        0.11440000      -1.25770000      -0.31620000
C        0.04380000      -0.10520000      -0.27110000
C       -0.02390000       1.35210000      -0.20570000
C        1.27680000       1.97830000       0.33370000
N        1.13820000       3.42710000       0.30100000
C        1.70180000       4.10700000       1.18770000
C        1.79850000       5.58140000       1.51410000
C        2.65130000       5.08810000       2.70130000
O        2.48300000       3.70560000       2.25530000
H       -0.23010000       1.75180000      -1.20380000
H       -0.86550000       1.64210000       0.43230000
H        1.49190000       1.58950000       1.33640000
H        2.10900000       1.67850000      -0.31470000
H        2.32180000       6.18040000       0.76710000
H        0.85060000       6.05960000       1.76520000
H        3.70600000       5.37150000       2.69480000
H        2.22500000       5.23050000       3.69670000
