21
Properties=species:S:1:pos:R:3 gdb_61507=T pbc="F F F"
C        0.94480000      -0.50820000       1.20100000
C        0.07670000       0.05420000       0.06580000
C        0.64410000      -0.34200000      -1.31730000
C       -0.03020000       0.34910000      -2.51070000
C        0.32060000       1.84210000      -2.65200000
C        0.27590000      -0.36450000      -3.81580000
O        0.90480000      -1.38590000      -3.92300000
C       -1.33750000      -0.48020000       0.17590000
O       -2.34120000       0.17530000       0.05580000
H        0.98680000      -1.60250000       1.16060000
H        1.96960000      -0.13420000       1.12050000
H        0.55650000      -0.22130000       2.18310000
H        0.01540000       1.14440000       0.14650000
H        1.71760000      -0.11840000      -1.33050000
H        0.57000000      -1.42790000      -1.44810000
H       -1.12530000       0.28530000      -2.40480000
H        1.40380000       1.98490000      -2.73060000
H       -0.14250000       2.27290000      -3.54580000
H       -0.03760000       2.41200000      -1.79160000
H       -0.14440000       0.14350000      -4.71530000
H       -1.39150000      -1.58180000       0.35420000
