17
Properties=species:S:1:pos:R:3 gdb_73651=T pbc="F F F"
C       -0.22650000       1.49480000      -0.04790000
C       -0.02160000      -0.00090000       0.01600000
O       -1.26860000      -0.67190000      -0.00260000
C       -1.06490000      -1.90490000       0.65270000
O       -0.10900000      -1.68330000       1.67050000
C        0.76680000      -0.67890000       1.19570000
C        1.88540000      -1.15880000       0.22520000
C        1.06280000      -0.59790000      -0.95100000
O        1.18310000      -0.61330000      -2.13930000
H        0.72800000       2.02390000       0.02990000
H       -0.68930000       1.76690000      -1.00050000
H       -0.87920000       1.81870000       0.76780000
H       -2.00450000      -2.22860000       1.10700000
H       -0.70620000      -2.66810000      -0.06000000
H        1.08220000      -0.06380000       2.03850000
H        2.84620000      -0.65040000       0.35500000
H        2.06200000      -2.23780000       0.20290000
