20
Properties=species:S:1:pos:R:3 gdb_112430=T pbc="F F F"
C        0.11090000       1.64100000       0.05590000
C        0.11140000       0.10960000       0.09520000
C        0.60030000      -0.52580000      -1.21620000
N        1.98990000      -0.22150000      -1.53070000
C        2.83520000      -1.22490000      -1.10090000
O        4.02760000      -1.18730000      -0.97730000
O        2.07550000      -2.33000000      -0.83490000
C        0.70960000      -2.07530000      -1.22080000
C       -0.22560000      -2.85730000      -0.31970000
H        1.12040000       2.04570000      -0.07400000
H       -0.51040000       2.01790000      -0.76430000
H       -0.28230000       2.05430000       0.98880000
H        0.73790000      -0.24180000       0.92390000
H       -0.90660000      -0.24500000       0.29400000
H       -0.05590000      -0.20330000      -2.03360000
H        2.35080000       0.71850000      -1.51240000
H        0.59710000      -2.42060000      -2.25720000
H       -0.11000000      -2.56720000       0.72700000
H       -1.26600000      -2.69460000      -0.61820000
H       -0.01040000      -3.92540000      -0.40460000
