12
Properties=species:S:1:pos:R:3 gdb_4153=T pbc="F F F"
O       -0.13000000       1.37540000       0.06930000
N        0.03940000      -0.00400000       0.18380000
C       -1.05010000      -0.61480000       0.02110000
C       -2.50410000      -0.33570000      -0.25700000
O       -2.77600000      -1.76320000      -0.18680000
C       -1.39180000      -2.09480000       0.06980000
C       -0.80240000      -2.94310000      -0.97040000
N       -0.33300000      -3.61260000      -1.78630000
H        0.76520000       1.70940000       0.20020000
H       -3.03980000       0.22990000       0.51370000
H       -2.72820000       0.08420000      -1.24450000
H       -1.25890000      -2.57410000       1.04790000
