21
Properties=species:S:1:pos:R:3 gdb_120689=T pbc="F F F"
C        0.00810000       1.48740000       0.02880000
C        0.09270000      -0.01900000      -0.13630000
O        1.15020000      -0.57660000      -0.35540000
C       -1.19670000      -0.76030000      -0.01290000
C       -1.31600000      -2.12800000      -0.66260000
C       -1.28600000      -2.04470000       0.82780000
C       -0.12550000      -2.57910000       1.63920000
C       -0.24200000      -4.08870000       1.87740000
O        0.79790000      -4.59100000       2.70040000
H        1.00190000       1.92840000      -0.05330000
H       -0.64940000       1.91440000      -0.73750000
H       -0.43290000       1.73950000       1.00000000
H       -2.08480000      -0.13740000       0.00510000
H       -2.24490000      -2.36550000      -1.16850000
H       -0.41290000      -2.47040000      -1.15730000
H       -2.25180000      -2.14950000       1.31780000
H        0.81400000      -2.36300000       1.12090000
H       -0.08100000      -2.07790000       2.61380000
H       -1.17340000      -4.32000000       2.40700000
H       -0.28220000      -4.61610000       0.91100000
H        1.63220000      -4.42230000       2.25070000
