23
Properties=species:S:1:pos:R:3 gdb_88832=T pbc="F F F"
C        0.23520000       1.54970000      -0.41150000
C       -0.02380000       0.11760000      -0.01850000
O        1.10040000      -0.76510000       0.04710000
C        0.37440000      -0.50300000       1.25980000
C        1.10470000       0.19230000       2.37110000
C        0.29690000       0.60080000       3.63620000
C        1.50360000       0.16670000       4.50960000
C        2.06710000      -0.63570000       3.29800000
C        1.80130000      -2.13710000       3.36770000
H        1.10090000       1.96660000       0.10650000
H        0.42470000       1.61410000      -1.48820000
H       -0.63980000       2.17020000      -0.18900000
H       -0.89060000      -0.32620000      -0.51500000
H       -0.23220000      -1.35140000       1.58540000
H        1.65020000       1.05170000       1.97480000
H       -0.03530000       1.63950000       3.70270000
H       -0.57380000      -0.04510000       3.78780000
H        2.14090000       1.01300000       4.78010000
H        1.28500000      -0.40420000       5.41630000
H        3.12760000      -0.47050000       3.08710000
H        0.75850000      -2.35840000       3.62220000
H        2.02470000      -2.62750000       2.41470000
H        2.42800000      -2.59740000       4.13930000
