15
Properties=species:S:1:pos:R:3 gdb_42276=T pbc="F F F"
O        0.35930000       0.33320000      -1.28250000
C        0.05000000       1.23820000      -0.54820000
C        1.00470000       1.73630000       0.46950000
N        1.73460000       2.15350000       1.26360000
C       -1.29010000       1.92200000      -0.52070000
C       -2.43220000       1.37210000      -1.40670000
N       -3.31970000       1.12940000      -0.21120000
C       -2.60820000       0.14680000       0.62240000
C       -2.17690000       1.55850000       0.68660000
H       -1.15200000       3.00280000      -0.60920000
H       -2.87550000       2.12420000      -2.05960000
H       -2.19930000       0.47250000      -1.98100000
H       -3.20850000      -0.22030000       1.44850000
H       -1.98080000      -0.60190000       0.14360000
H       -2.32470000       2.18920000       1.55570000
