13
Properties=species:S:1:pos:R:3 gdb_128917=T pbc="F F F"
N        0.01800000      -1.16590000       0.09870000
C       -0.00040000      -0.01120000       0.12670000
C        0.00000000       1.44880000       0.15540000
C        1.38870000       2.02740000      -0.20980000
C        1.39660000       3.51490000      -0.13230000
N        1.63510000       4.32330000      -1.12500000
O        1.53750000       5.56150000      -0.59050000
N        1.22590000       5.44600000       0.76100000
N        1.14190000       4.22240000       1.03220000
H       -0.75800000       1.81710000      -0.54410000
H       -0.29290000       1.78630000       1.15490000
H        2.13680000       1.62900000       0.48260000
H        1.67460000       1.72540000      -1.21900000
