19
Properties=species:S:1:pos:R:3 gdb_37658=T pbc="F F F"
C       -0.02470000       1.55720000       0.00900000
C        1.51510000       1.74940000      -0.00360000
C        1.94760000       0.89720000       1.21490000
C        2.39030000      -0.46640000       0.73480000
C        2.37710000      -0.45910000      -0.77830000
C        1.92620000       0.90900000      -1.23750000
C        0.95020000      -0.25470000      -1.23460000
C        0.05420000       0.00740000       0.00090000
C        0.97170000      -0.26650000       1.21780000
H       -0.50180000       1.95950000       0.90940000
H       -0.51740000       1.96810000      -0.87900000
H        1.88260000       2.77540000      -0.00180000
H        2.32300000       1.35120000       2.12430000
H        3.10510000      -1.06450000       1.28730000
H        3.08210000      -1.05180000      -1.34890000
H        2.28560000       1.37170000      -2.14890000
H        0.55490000      -0.69200000      -2.14370000
H       -0.89220000      -0.53320000       0.00650000
H        0.59230000      -0.71250000       2.12950000
