17
Properties=species:S:1:pos:R:3 gdb_79715=T pbc="F F F"
O        0.24720000       1.47370000      -0.22990000
C        0.06550000       0.11360000      -0.02940000
C        0.19490000      -0.57650000       1.37330000
C       -0.96580000       0.01020000       2.18520000
O       -1.52280000       1.25210000       1.69810000
C       -2.05180000       0.00720000       1.19200000
C       -1.34290000      -0.58190000      -0.03560000
C       -0.60740000      -1.76450000       0.68870000
O        0.09330000      -2.59060000      -0.20260000
H       -0.33540000       1.91470000       0.40320000
H        0.71210000      -0.40380000      -0.73590000
H        1.15480000      -0.72700000       1.86680000
H       -1.09330000      -0.16990000       3.24660000
H       -3.09750000      -0.17690000       1.41050000
H       -1.91480000      -0.74060000      -0.94810000
H       -1.23140000      -2.35200000       1.37480000
H        0.62060000      -3.21170000       0.30950000
