21
Properties=species:S:1:pos:R:3 gdb_116005=T pbc="F F F"
C       -0.01440000       1.56500000       0.19570000
C       -0.04390000       0.04830000      -0.06500000
C       -1.42340000      -0.53250000      -0.05740000
C       -2.10900000      -1.10690000      -1.04170000
C       -3.44170000      -1.58300000      -0.54490000
O       -3.50820000      -1.13230000       0.80710000
C       -2.25030000      -0.62160000       1.20770000
O       -1.57750000      -1.47110000       2.10490000
C       -2.20620000      -1.57160000       3.36910000
H        1.01400000       1.93840000       0.17890000
H       -0.58540000       2.10590000      -0.56540000
H       -0.44100000       1.81230000       1.17280000
H        0.43460000      -0.16760000      -1.02630000
H        0.54730000      -0.45860000       0.70770000
H       -1.77210000      -1.25180000      -2.06110000
H       -4.28810000      -1.15280000      -1.09820000
H       -3.53880000      -2.67870000      -0.59740000
H       -2.43840000       0.34240000       1.71050000
H       -1.57290000      -2.20580000       3.99360000
H       -2.30520000      -0.58470000       3.84750000
H       -3.20270000      -2.02150000       3.28680000
