17
Properties=species:S:1:pos:R:3 gdb_89270=T pbc="F F F"
O        0.08840000       1.43060000      -0.13230000
C        0.02050000       0.03940000      -0.00630000
C        0.31340000      -0.59930000       1.39890000
C       -1.08940000      -1.26800000       1.38000000
O       -1.21340000      -2.64880000       1.52940000
C       -2.27070000      -0.42370000       1.96100000
O       -2.00420000       0.96000000       1.69620000
C       -2.55010000       0.14830000       0.63280000
C       -1.39310000      -0.64420000      -0.01600000
H       -0.46090000       1.79040000       0.57580000
H        0.66760000      -0.37190000      -0.78480000
H        1.11850000      -1.33830000       1.38240000
H        0.49480000       0.12460000       2.19630000
H       -0.96200000      -2.88010000       2.43110000
H       -2.92020000      -0.65250000       2.80010000
H       -3.47140000       0.50360000       0.18650000
H       -1.67320000      -1.27700000      -0.85730000
