15
Properties=species:S:1:pos:R:3 gdb_45843=T pbc="F F F"
N       -0.12130000       1.17640000      -0.72760000
C        0.01630000       0.11440000      -0.03480000
N        1.21810000      -0.33240000       0.52480000
C        1.52970000      -1.60070000       1.02450000
N        0.81580000      -2.36590000       1.73410000
C       -0.47580000      -1.88930000       2.20240000
C       -1.49560000      -1.58390000       1.11610000
O       -2.61200000      -2.04700000       1.10680000
N       -1.10180000      -0.70220000       0.11630000
H        0.75450000       1.68080000      -0.84450000
H        2.01180000       0.19810000       0.19710000
H        2.54400000      -1.91400000       0.77240000
H       -0.92900000      -2.64520000       2.84330000
H       -0.34260000      -0.96990000       2.79560000
H       -1.86700000      -0.40450000      -0.47610000
