15
Properties=species:S:1:pos:R:3 gdb_42578=T pbc="F F F"
O        0.01820000       0.05800000       0.33500000
C       -0.01180000       1.22030000       0.03590000
C       -1.20810000       2.10370000      -0.09130000
C       -0.86010000       3.29150000      -0.88990000
C        0.65840000       3.38240000      -0.68510000
C        0.39620000       3.82010000       0.76300000
C        1.32220000       2.70410000       1.24000000
N        1.15280000       2.05470000      -0.13490000
N       -1.08490000       3.46050000       0.58210000
H       -2.20850000       1.69390000      -0.04630000
H       -1.48260000       3.75240000      -1.64690000
H        1.32980000       3.84830000      -1.40210000
H        0.46730000       4.83990000       1.14080000
H        2.35420000       3.03690000       1.38440000
H        1.01910000       2.06900000       2.07630000
