23
Properties=species:S:1:pos:R:3 gdb_105518=T pbc="F F F"
C        0.19040000       1.46420000       0.01540000
C        0.09890000      -0.06080000      -0.11240000
C       -1.30150000      -0.62810000       0.13030000
C       -1.35850000      -2.15590000       0.40430000
C       -1.86040000      -1.74520000       1.80000000
O       -1.72130000      -0.34240000       1.49510000
C       -2.36710000      -0.11070000      -0.84780000
C       -2.00560000      -0.31470000      -2.32170000
O       -3.57680000      -0.79760000      -0.53250000
H        1.23380000       1.79210000      -0.01320000
H       -0.33720000       1.98220000      -0.79190000
H       -0.24260000       1.78830000       0.96600000
H        0.46570000      -0.39230000      -1.09150000
H        0.75790000      -0.51840000       0.63410000
H       -2.07180000      -2.71170000      -0.20200000
H       -0.38470000      -2.64890000       0.38430000
H       -2.90240000      -2.00890000       2.01080000
H       -1.23130000      -2.04200000       2.64800000
H       -2.49050000       0.96330000      -0.64260000
H       -2.84890000      -0.02150000      -2.95690000
H       -1.14410000       0.28880000      -2.62060000
H       -1.78450000      -1.36740000      -2.52570000
H       -4.29290000      -0.37300000      -1.01310000
