15
Properties=species:S:1:pos:R:3 gdb_124431=T pbc="F F F"
C       -0.06190000       1.55910000      -0.09100000
C       -0.04400000       0.03550000       0.12100000
C        0.66050000      -0.32660000       1.35730000
N        1.22790000      -0.58250000       2.32980000
N       -1.39220000      -0.52480000       0.13500000
C       -2.17210000      -0.95860000       1.15120000
N       -3.35340000      -1.32490000       0.69230000
C       -3.24310000      -1.08490000      -0.64240000
N       -2.07640000      -0.59900000      -1.03390000
H        0.95970000       1.93800000      -0.16930000
H       -0.60030000       1.77460000      -1.01540000
H       -0.56240000       2.05670000       0.74280000
H        0.47890000      -0.43890000      -0.71620000
H       -1.83490000      -0.99740000       2.17560000
H       -4.03930000      -1.27720000      -1.34600000
