19
Properties=species:S:1:pos:R:3 gdb_77575=T pbc="F F F"
C       -0.13730000       1.55590000       0.05280000
C        0.02850000       0.06480000       0.01120000
C       -0.79060000      -0.88810000       0.82530000
C        0.70690000      -0.88500000       1.03250000
C        1.33170000      -1.64330000      -0.10190000
C        2.53090000      -2.46330000      -0.21990000
O        1.22070000      -3.05930000      -0.28200000
C        0.70850000      -0.70020000      -1.14630000
O       -0.08930000      -1.31820000      -2.12320000
H        0.78510000       2.06990000      -0.24060000
H       -0.93030000       1.88000000      -0.63110000
H       -0.40750000       1.89790000       1.05730000
H       -1.36350000      -0.43490000       1.62830000
H       -1.27300000      -1.74320000       0.36130000
H        1.16650000      -0.65530000       1.98600000
H        3.09290000      -2.46830000      -1.15320000
H        3.10610000      -2.71900000       0.66900000
H        1.46150000      -0.06540000      -1.63350000
H       -0.01620000      -2.26900000      -1.96400000
