20
Properties=species:S:1:pos:R:3 gdb_87406=T pbc="F F F"
C        0.02840000       1.31660000      -0.34250000
N        0.18210000      -0.10900000      -0.05180000
C        1.55660000      -0.62060000      -0.01780000
C        0.75660000      -0.49200000       1.22240000
C        1.03240000       0.34490000       2.49520000
O        0.03070000       1.29970000       2.78160000
C        0.87950000      -0.98540000       3.29560000
C        0.14650000      -1.60290000       2.08090000
O       -1.25610000      -1.38600000       2.21000000
H        0.84000000       1.93860000       0.06020000
H       -0.00680000       1.44740000      -1.42860000
H       -0.91090000       1.67730000       0.08330000
H        1.71820000      -1.59340000      -0.47630000
H        2.36400000       0.09560000      -0.16890000
H        1.98960000       0.86640000       2.56310000
H       -0.80700000       0.81660000       2.78800000
H        1.83850000      -1.47390000       3.48480000
H        0.30390000      -0.92010000       4.22090000
H        0.36560000      -2.64560000       1.81980000
H       -1.58430000      -1.28220000       1.30630000
