19
Properties=species:S:1:pos:R:3 gdb_17568=T pbc="F F F"
C       -0.03990000       1.52150000       0.04350000
C        0.03110000       0.01180000       0.05020000
C        0.91310000      -0.81250000      -0.96420000
C        0.71620000      -1.93760000       0.10990000
C        0.78350000      -0.79120000       1.15410000
C       -0.79970000      -2.17630000      -0.04500000
N       -1.63910000      -1.65230000       1.06250000
C       -1.29070000      -0.78340000      -0.09000000
H        0.95890000       1.96780000       0.09170000
H       -0.52660000       1.89370000      -0.86620000
H       -0.61360000       1.89130000       0.90070000
H        0.50760000      -0.98730000      -1.96640000
H        1.94290000      -0.44920000      -1.02850000
H        1.36850000      -2.80880000       0.16540000
H        1.80470000      -0.42440000       1.28030000
H        0.29470000      -0.93350000       2.11580000
H       -1.17780000      -2.96880000      -0.68080000
H       -2.58940000      -1.99340000       0.92710000
H       -2.06870000      -0.43680000      -0.76210000
