18
Properties=species:S:1:pos:R:3 gdb_14702=T pbc="F F F"
C       -0.35710000       1.33300000      -0.31150000
O       -0.31800000      -0.07490000      -0.32680000
C        0.92420000      -0.56500000      -0.79320000
C        0.92430000      -2.02040000      -0.80270000
C        0.95000000      -3.22260000      -0.82890000
C        0.97780000      -4.67770000      -0.82280000
O        0.74930000      -5.18100000      -2.12480000
C        0.76140000      -6.58910000      -2.15540000
H        0.41340000       1.75800000       0.35190000
H       -0.21410000       1.75840000      -1.31790000
H       -1.34220000       1.62460000       0.05880000
H        1.12840000      -0.19080000      -1.81190000
H        1.74650000      -0.19570000      -0.15500000
H        1.95190000      -5.03090000      -0.44030000
H        0.21240000      -5.05700000      -0.12290000
H       -0.02420000      -7.02020000      -1.51410000
H        0.57920000      -6.89110000      -3.18900000
H        1.73130000      -6.99850000      -1.82990000
