20
Properties=species:S:1:pos:R:3 gdb_108169=T pbc="F F F"
C        0.41570000       1.37080000      -0.38050000
C       -0.23490000       0.11250000       0.20870000
C        0.53820000      -0.47050000       1.35820000
O        1.81450000      -0.99880000       0.96890000
C        2.00510000      -2.10110000       1.73780000
N        1.10180000      -2.43950000       2.56670000
C        0.07490000      -1.42980000       2.45210000
C        0.46120000       0.01030000       2.78390000
C        1.65470000       0.39740000       3.62550000
H        1.42190000       1.15040000      -0.74800000
H       -0.17340000       1.76100000      -1.21570000
H        0.49860000       2.16020000       0.37360000
H       -1.24510000       0.34370000       0.56620000
H       -0.34430000      -0.65260000      -0.56970000
H        2.94250000      -2.61720000       1.56830000
H       -0.94690000      -1.76200000       2.59590000
H       -0.41770000       0.63020000       2.94890000
H        2.48700000      -0.29900000       3.50610000
H        2.01340000       1.39600000       3.35520000
H        1.38600000       0.40960000       4.68660000
