19
Properties=species:S:1:pos:R:3 gdb_72288=T pbc="F F F"
O       -0.10210000       1.44890000      -0.03380000
C        0.00990000       0.06780000      -0.07720000
C        0.61300000      -0.68180000      -1.26360000
C       -0.40520000      -1.84820000      -1.01290000
C        0.17100000      -3.10970000      -0.36190000
C        1.12250000      -2.74590000       0.78300000
O        0.58830000      -1.79520000       1.69710000
C       -0.20660000      -0.77580000       1.15840000
C       -1.14380000      -0.95750000       0.00970000
H        0.63280000       1.79700000       0.48290000
H        0.36710000      -0.15590000      -2.18980000
H        1.68540000      -0.90080000      -1.25900000
H       -0.99660000      -2.09300000      -1.89630000
H       -0.65320000      -3.72650000       0.01660000
H        0.72400000      -3.71550000      -1.08970000
H        1.36130000      -3.62940000       1.38270000
H        2.07060000      -2.36850000       0.37210000
H       -0.60710000      -0.18400000       1.97650000
H       -2.21590000      -0.81520000       0.07500000
