17
Properties=species:S:1:pos:R:3 gdb_98640=T pbc="F F F"
C        0.02140000       1.47650000       0.07620000
N       -0.05410000       0.02720000       0.08030000
C       -1.23050000      -0.65050000      -0.01680000
O       -2.31910000      -0.11550000      -0.12630000
C       -1.08140000      -2.17300000       0.00600000
C       -0.85010000      -2.82510000       1.40840000
C       -2.28180000      -3.39190000       1.22810000
O       -3.05180000      -4.01270000       1.90360000
N       -2.35600000      -2.88270000      -0.05670000
H        0.64270000       1.83860000      -0.74990000
H       -0.99420000       1.85330000      -0.04860000
H        0.43080000       1.85850000       1.01780000
H        0.79830000      -0.50060000       0.17630000
H       -0.36730000      -2.48840000      -0.76430000
H       -0.05620000      -3.57150000       1.46420000
H       -0.76060000      -2.12260000       2.23900000
H       -3.18120000      -2.57360000      -0.55280000
