16
Properties=species:S:1:pos:R:3 gdb_53865=T pbc="F F F"
N       -0.01630000       1.31630000       0.00790000
C        0.07950000      -0.03070000       0.00110000
O        1.10780000      -0.67940000      -0.01230000
C       -1.30970000      -0.71480000       0.01040000
O       -2.31930000      -0.04580000       0.02400000
C       -1.29180000      -2.22180000       0.00230000
C       -2.70240000      -2.82930000       0.01280000
C       -2.67610000      -4.28620000       0.00480000
C       -2.63080000      -5.48710000      -0.00210000
H        0.81600000       1.88090000       0.00290000
H       -0.93050000       1.73880000       0.01890000
H       -0.71540000      -2.55220000      -0.86990000
H       -0.69860000      -2.56140000       0.85950000
H       -3.24720000      -2.46760000       0.89240000
H       -3.26410000      -2.45830000      -0.85220000
H       -2.60410000      -6.54840000      -0.00880000
