17
Properties=species:S:1:pos:R:3 gdb_75050=T pbc="F F F"
C        0.04460000       1.54600000       0.15210000
C       -0.06870000       0.05430000       0.03020000
C       -1.20800000      -0.59700000      -0.23020000
C       -1.27710000      -2.09020000      -0.34370000
C        0.04410000      -2.81430000      -0.14270000
O        0.13700000      -4.01740000      -0.20720000
C        1.29980000      -1.99460000       0.15150000
N        2.44350000      -2.52860000       0.33260000
N        1.13510000      -0.62900000       0.21280000
H        0.74530000       1.95040000      -0.58870000
H       -0.92570000       2.02030000      -0.00000000
H        0.41670000       1.83370000       1.14300000
H       -2.12100000      -0.03080000      -0.36560000
H       -1.98450000      -2.52140000       0.37990000
H       -1.66270000      -2.40690000      -1.32400000
H        2.33390000      -3.54100000       0.24300000
H        1.97520000      -0.10490000       0.40790000
