16
Properties=species:S:1:pos:R:3 gdb_126354=T pbc="F F F"
C       -0.08610000       1.53520000       0.14210000
C        0.01930000       0.02280000      -0.03260000
C        0.73120000      -0.41970000      -1.28180000
N        1.20030000       0.43950000      -2.11470000
C        1.84850000      -0.02160000      -3.25200000
N        2.33160000       0.76850000      -4.11030000
O        1.97110000      -1.41200000      -3.45470000
N        1.46680000      -2.33110000      -2.55990000
C        0.87730000      -1.85150000      -1.52720000
H        0.90410000       1.99560000       0.17680000
H       -0.62490000       1.98950000      -0.69260000
H       -0.61440000       1.77120000       1.06960000
H        0.53630000      -0.43630000       0.82300000
H       -0.97760000      -0.44230000      -0.03760000
H        2.76620000       0.24550000      -4.87100000
H        0.48650000      -2.58970000      -0.83380000
