18
Properties=species:S:1:pos:R:3 gdb_78089=T pbc="F F F"
C        0.01230000       1.58290000       0.06530000
C        0.06990000       0.07190000       0.04850000
C        1.30030000      -0.75690000      -0.29550000
C        2.53010000      -0.12540000       0.35950000
O        1.86880000      -0.07440000       1.64560000
C        0.71650000      -0.77010000       1.10740000
C        0.09110000      -1.80870000       1.97710000
C        3.70530000      -1.00070000       0.39620000
N        4.63230000      -1.69030000       0.40210000
H        0.84670000       2.00610000       0.62950000
H        0.03250000       1.99370000      -0.94940000
H       -0.91080000       1.92310000       0.54540000
H       -0.82080000      -0.40930000      -0.35300000
H        1.32960000      -1.51560000      -1.06530000
H        2.83470000       0.86850000       0.01110000
H       -0.34120000      -1.34750000       2.87210000
H       -0.71220000      -2.32030000       1.43950000
H        0.82970000      -2.54950000       2.29690000
