17
Properties=species:S:1:pos:R:3 gdb_29958=T pbc="F F F"
C        0.00940000       1.45020000       0.03620000
N        0.00750000       0.00040000       0.03340000
C       -0.02140000      -0.81110000      -1.07780000
N       -0.01600000      -2.07680000      -0.77390000
C        0.01860000      -2.11510000       0.60850000
C        0.03560000      -3.36070000       1.37150000
O        0.02170000      -4.47670000       0.90570000
C        0.03360000      -0.82760000       1.12900000
C        0.06910000      -0.29750000       2.52260000
H        0.91110000       1.84210000       0.51670000
H       -0.01520000       1.80270000      -0.99620000
H       -0.86690000       1.84440000       0.55980000
H       -0.04550000      -0.39230000      -2.07430000
H        0.06380000      -3.20880000       2.47580000
H        0.95760000       0.32080000       2.69980000
H       -0.80820000       0.32230000       2.74430000
H        0.08660000      -1.11570000       3.24330000
