14
Properties=species:S:1:pos:R:3 gdb_132285=T pbc="F F F"
C       -0.02030000       1.45730000       0.07850000
C       -0.00600000      -0.02870000      -0.05960000
N       -0.04970000      -0.61480000      -1.20230000
C       -0.02960000      -1.98260000      -1.17120000
F       -0.07610000      -2.53730000      -2.36880000
C        0.03100000      -2.73730000      -0.05840000
C        0.07980000      -2.07090000       1.21890000
N        0.13840000      -2.63350000       2.34930000
O        0.05640000      -0.65520000       1.13030000
H        0.88040000       1.79470000       0.60110000
H       -0.07090000       1.91570000      -0.90780000
H       -0.87960000       1.77040000       0.67990000
H        0.04470000      -3.81680000      -0.08040000
H        0.16310000      -1.94880000       3.10390000
