18
Properties=species:S:1:pos:R:3 gdb_7190=T pbc="F F F"
O       -0.11370000       1.47940000      -0.07180000
C        0.01830000       0.06620000      -0.08860000
C       -1.38130000      -0.52560000       0.02930000
C       -1.38600000      -2.05550000       0.05600000
O       -0.60060000      -2.57450000       1.12900000
C       -2.81680000      -2.62420000       0.09800000
C       -2.84800000      -4.13610000       0.00790000
O       -3.61510000      -4.75790000      -0.68260000
H        0.76680000       1.86350000      -0.11470000
H        0.48730000      -0.28180000      -1.02380000
H        0.64200000      -0.29430000       0.74140000
H       -1.85410000      -0.14000000       0.94370000
H       -1.99070000      -0.16920000      -0.80900000
H       -0.88440000      -2.42930000      -0.84620000
H       -0.95030000      -2.21120000       1.95110000
H       -3.27530000      -2.33520000       1.05680000
H       -3.44020000      -2.21290000      -0.70130000
H       -2.09220000      -4.64870000       0.64040000
