17
Properties=species:S:1:pos:R:3 gdb_69131=T pbc="F F F"
C        0.02540000       1.48660000      -0.08370000
C       -0.04930000      -0.01740000       0.00430000
C       -0.73240000      -0.67570000       1.14380000
N        0.75380000      -0.65100000       1.09670000
C        1.31190000      -1.85070000       0.59610000
N        1.99700000      -2.66220000       1.28330000
C        0.96230000      -2.01470000      -0.88430000
O        1.32220000      -2.93710000      -1.56660000
C        0.09220000      -0.82590000      -1.28080000
H        0.93720000       1.80220000      -0.60190000
H       -0.83320000       1.88450000      -0.63570000
H        0.03170000       1.93090000       0.91460000
H       -1.16000000      -0.07710000       1.94210000
H       -1.22330000      -1.63330000       0.98310000
H        2.28510000      -3.42960000       0.66570000
H       -0.85750000      -1.16730000      -1.70350000
H        0.60430000      -0.25360000      -2.06250000
