17
Properties=species:S:1:pos:R:3 gdb_61905=T pbc="F F F"
C        2.37890000       0.51980000      -0.26200000
C        0.90540000       0.13830000      -0.36330000
O        0.82740000      -1.12610000      -1.03500000
C       -0.40760000      -1.37580000      -1.66810000
C       -0.60860000      -0.54190000      -2.86850000
N       -0.76060000       0.11520000      -3.80630000
C        0.27030000       0.09890000       1.03890000
N        0.06990000      -1.15270000       1.53860000
O       -0.00280000       1.12350000       1.62960000
H        2.93960000      -0.25460000       0.27020000
H        2.80620000       0.63620000      -1.26050000
H        2.47250000       1.46070000       0.28410000
H        0.36730000       0.90460000      -0.93410000
H       -0.40200000      -2.42720000      -1.97100000
H       -1.25860000      -1.22570000      -0.98870000
H        0.46430000      -1.94730000       1.06390000
H       -0.21130000      -1.23940000       2.50190000
