14
Properties=species:S:1:pos:R:3 gdb_131601=T pbc="F F F"
O        0.02650000       1.33710000       0.00940000
C       -0.02180000      -0.06510000       0.00320000
C       -1.48850000      -0.46880000       0.01280000
O       -2.42100000       0.27370000       0.02360000
N       -1.67880000      -1.89400000       0.00820000
N       -0.64420000      -2.75160000      -0.00410000
C       -1.22500000      -3.93950000      -0.00450000
C       -2.62700000      -3.75630000       0.00780000
N       -2.89190000      -2.46060000       0.01570000
H        0.95190000       1.59830000      -0.00090000
H        0.45120000      -0.51400000      -0.88310000
H        0.46490000      -0.52220000       0.87790000
H       -0.64160000      -4.84690000      -0.01330000
H       -3.42120000      -4.48620000       0.01110000
