20
Properties=species:S:1:pos:R:3 gdb_121192=T pbc="F F F"
C        0.30000000       1.34880000      -0.09550000
O        0.11380000      -0.04330000       0.01550000
C        0.75890000      -0.59650000       1.14030000
C        0.47920000      -2.09080000       1.13890000
C        1.19810000      -2.86510000      -0.00110000
C        2.28880000      -3.31900000       1.00490000
C        1.33140000      -2.91160000       2.17140000
C        1.89510000      -2.22690000       3.32330000
N        2.35200000      -1.66720000       4.22670000
H        1.36490000       1.61140000      -0.19600000
H       -0.23180000       1.67860000      -0.99110000
H       -0.10370000       1.88530000       0.77710000
H        1.84460000      -0.39980000       1.09890000
H        0.38840000      -0.13820000       2.07210000
H       -0.59890000      -2.24760000       1.21620000
H        0.60200000      -3.70140000      -0.37390000
H        1.52060000      -2.26100000      -0.85020000
H        2.60030000      -4.36450000       0.98660000
H        3.17920000      -2.68830000       0.97740000
H        0.76260000      -3.77600000       2.52480000
