18
Properties=species:S:1:pos:R:3 gdb_93289=T pbc="F F F"
C        0.08660000       1.62310000      -0.03570000
C        0.01440000       0.09200000       0.03540000
C        0.81820000      -0.57950000      -1.09460000
O        2.15650000      -0.75120000      -0.57880000
C        2.13920000      -0.76880000       0.78460000
N        3.12910000      -0.98790000       1.53440000
C        0.73980000      -0.47050000       1.24870000
C        0.41200000      -0.25230000       2.65630000
O        0.10350000      -1.49650000       2.02110000
H        1.12570000       1.96890000      -0.04340000
H       -0.39640000       1.99090000      -0.94630000
H       -0.41360000       2.08200000       0.82160000
H       -1.02540000      -0.24310000       0.03430000
H        0.41360000      -1.56390000      -1.35570000
H        0.89300000       0.02730000      -1.99980000
H        3.96470000      -1.19920000       0.98700000
H        1.21710000      -0.29150000       3.38650000
H       -0.44780000       0.36480000       2.91470000
