16
Properties=species:S:1:pos:R:3 gdb_29399=T pbc="F F F"
C       -0.37740000       1.36950000       0.29520000
C       -0.05340000      -0.06730000       0.01780000
C        0.20590000      -0.62470000      -1.21170000
N        0.45740000      -1.96930000      -1.03630000
C        0.36960000      -2.25960000       0.29450000
O        0.61990000      -3.54350000       0.70150000
C       -0.34030000      -4.16060000       1.45560000
O       -0.17370000      -5.24290000       1.91990000
C        0.05590000      -1.11760000       0.98620000
H        0.35100000       1.82530000       0.97570000
H       -0.37960000       1.95630000      -0.62780000
H       -1.36370000       1.48120000       0.76060000
H        0.23860000      -0.17800000      -2.19230000
H        0.69190000      -2.63720000      -1.74990000
H       -1.24090000      -3.53170000       1.56420000
H       -0.05640000      -1.03290000       2.05590000
