15
Properties=species:S:1:pos:R:3 gdb_66705=T pbc="F F F"
C       -0.02550000       1.48310000       0.02990000
C       -0.01240000      -0.00070000      -0.03620000
C       -0.09710000      -1.00520000      -1.14610000
C        0.80000000      -1.93710000      -0.30040000
C       -0.18450000      -1.94620000       0.80950000
N        0.90190000      -0.90850000       0.79540000
C       -1.14300000      -1.03090000       0.00670000
C       -2.54370000      -0.87180000      -0.05860000
N       -3.69400000      -0.73440000      -0.10350000
H        0.94090000       1.88990000      -0.28540000
H       -0.80280000       1.88570000      -0.62700000
H       -0.22620000       1.82270000       1.05080000
H       -0.29780000      -0.89620000      -2.20240000
H        1.61370000      -2.60580000      -0.54960000
H       -0.34720000      -2.61760000       1.64270000
