20
Properties=species:S:1:pos:R:3 gdb_15945=T pbc="F F F"
O       -0.07190000       1.43970000       0.15950000
C        0.01410000       0.01900000       0.16770000
C       -1.37320000      -0.52810000      -0.04280000
C       -2.39050000      -0.36990000       1.12220000
C       -2.69360000      -1.89860000       1.07550000
C       -1.69070000      -2.07170000      -0.09600000
C       -2.30030000      -1.89080000      -1.51130000
C       -2.00240000      -0.36140000      -1.45480000
H        0.81120000       1.79620000       0.29340000
H        0.68340000      -0.34310000      -0.63120000
H        0.41910000      -0.34890000       1.12570000
H       -1.92660000      -0.04370000       2.05690000
H       -3.23260000       0.29590000       0.91570000
H       -2.39870000      -2.42650000       1.98600000
H       -3.72610000      -2.17860000       0.84490000
H       -0.92470000      -2.84180000       0.01840000
H       -1.74520000      -2.41080000      -2.29630000
H       -3.35340000      -2.17440000      -1.60110000
H       -2.87070000       0.30120000      -1.50000000
H       -1.28530000      -0.02600000      -2.20880000
