16
Properties=species:S:1:pos:R:3 gdb_124141=T pbc="F F F"
C       -0.04240000       1.47880000       0.05990000
C       -0.00010000       0.02510000       0.05670000
C        0.04290000      -1.18070000       0.05470000
C        0.05630000      -2.59190000       0.04920000
C        1.11410000      -3.45010000       0.13670000
O        0.70070000      -4.71880000       0.09490000
N       -0.69130000      -4.73780000      -0.02570000
C       -1.06960000      -3.48510000      -0.05250000
C       -2.51070000      -3.11830000      -0.17550000
H        0.52940000       1.89620000      -0.77660000
H       -1.07170000       1.84300000      -0.02750000
H        0.37680000       1.88780000       0.98610000
H        2.17730000      -3.29280000       0.22940000
H       -2.83170000      -2.52120000       0.68400000
H       -2.67970000      -2.51290000      -1.07170000
H       -3.12510000      -4.01830000      -0.23290000
