19
Properties=species:S:1:pos:R:3 gdb_48329=T pbc="F F F"
O       -0.55670000       0.13930000      -0.28530000
C       -0.23340000       1.22090000       0.13380000
C        1.13660000       1.83870000      -0.02990000
C        1.52610000       2.63880000       1.22800000
C        1.68240000       1.79850000       2.41000000
C        1.79900000       1.07540000       3.36300000
C        2.24530000       0.90970000      -0.59170000
C        2.57650000       1.96830000      -1.67690000
C        1.25350000       2.70800000      -1.34040000
H       -0.97540000       1.87830000       0.64670000
H        2.45830000       3.18330000       1.03370000
H        0.76150000       3.40530000       1.41720000
H        1.90220000       0.44510000       4.21140000
H        3.03820000       0.63750000       0.10790000
H        1.80460000      -0.00110000      -1.00140000
H        3.45990000       2.56420000      -1.43400000
H        2.68080000       1.60670000      -2.70170000
H        0.45440000       2.48860000      -2.05270000
H        1.30130000       3.78990000      -1.19050000
