16
Properties=species:S:1:pos:R:3 gdb_462=T pbc="F F F"
C       -0.04620000       1.57700000      -0.00260000
C        0.02750000       0.04630000       0.01920000
C        0.78420000      -0.56520000      -1.19250000
C        1.55070000      -1.79410000      -0.64150000
C        1.60980000      -1.51420000       0.84240000
C        0.78680000      -0.52940000       1.19680000
H        0.95830000       2.01460000      -0.00810000
H       -0.57400000       1.93400000      -0.89370000
H       -0.57600000       1.96410000       0.87450000
H       -1.00500000      -0.33700000       0.04430000
H        0.11870000      -0.81370000      -2.02360000
H        1.50400000       0.17260000      -1.56560000
H        1.01220000      -2.73310000      -0.83500000
H        2.54060000      -1.91250000      -1.09690000
H        2.22660000      -2.09150000       1.52300000
H        0.62960000      -0.17730000       2.21150000
