19
Properties=species:S:1:pos:R:3 gdb_67246=T pbc="F F F"
C        0.16560000       1.57690000       0.16100000
C       -0.04100000       0.11440000      -0.03420000
C        0.42020000      -0.86030000      -1.05990000
N        0.89820000      -0.96690000       0.37330000
C       -0.22580000      -1.66360000       1.09360000
C       -1.24100000      -0.89060000       0.23910000
C       -0.95500000      -1.46950000      -1.15160000
C       -1.81870000      -1.53240000      -2.34260000
N       -1.39740000      -2.76800000      -1.63250000
H        1.19720000       1.84460000      -0.08710000
H       -0.50530000       2.16000000      -0.47920000
H       -0.01910000       1.87160000       1.20000000
H        1.18580000      -0.76010000      -1.81950000
H       -0.23040000      -2.75650000       1.01880000
H       -0.19950000      -1.35550000       2.14160000
H       -2.25610000      -0.66450000       0.55940000
H       -2.87930000      -1.30630000      -2.26920000
H       -1.37780000      -1.31230000      -3.31250000
H       -0.65500000      -3.23430000      -2.14900000
