21
Properties=species:S:1:pos:R:3 gdb_80582=T pbc="F F F"
C       -0.12310000       1.51200000       0.13300000
C        0.13220000       0.02640000      -0.01440000
C        1.46810000      -0.61360000      -0.28610000
C        2.60890000       0.07530000       0.46880000
C        1.83890000      -0.18010000       1.82160000
C        0.72680000      -0.87550000       1.03350000
C        2.62550000      -1.07890000       2.75360000
C        3.70030000      -0.39310000       3.58150000
O        2.42110000      -2.26960000       2.83090000
H        0.68480000       2.02810000       0.65880000
H       -0.22860000       1.98640000      -0.84880000
H       -1.04780000       1.69520000       0.69140000
H       -0.66110000      -0.48370000      -0.55890000
H        1.61580000      -1.28790000      -1.12110000
H        3.54000000      -0.49510000       0.41890000
H        2.82650000       1.11780000       0.21530000
H        1.55650000       0.73170000       2.36180000
H        0.24810000      -1.78590000       1.36910000
H        4.30970000       0.27560000       2.96450000
H        3.22670000       0.22800000       4.35120000
H        4.33220000      -1.13920000       4.06480000
