15
Properties=species:S:1:pos:R:3 gdb_125279=T pbc="F F F"
C       -0.01550000       1.48300000       0.05780000
C       -0.00200000      -0.00490000      -0.04560000
C       -0.04590000      -0.82320000      -1.14720000
C       -0.00430000      -2.16910000      -0.65490000
C        0.06280000      -2.09300000       0.72830000
N        0.09980000      -3.36710000       1.15980000
N        0.05670000      -4.21220000       0.06100000
N       -0.00540000      -3.48680000      -1.01300000
N        0.06530000      -0.79110000       1.12330000
H        0.88940000       1.87170000       0.54190000
H       -0.07120000       1.92150000      -0.94060000
H       -0.87680000       1.84950000       0.63080000
H       -0.10060000      -0.48600000      -2.17000000
H        0.15070000      -3.76860000       2.07960000
H        0.10730000      -0.42860000       2.05880000
