19
Properties=species:S:1:pos:R:3 gdb_82185=T pbc="F F F"
C        0.16100000       1.58870000       0.00980000
C        0.00760000       0.06370000      -0.00330000
C        0.65540000      -0.61040000      -1.21780000
O        2.06640000      -0.41290000      -1.33930000
C        1.60720000      -1.64020000      -0.77240000
C        1.60530000      -1.66810000       0.75580000
C        1.93980000      -2.93890000       1.48390000
O        2.06670000      -0.43790000       1.32700000
C        0.65290000      -0.63240000       1.19840000
H        1.22140000       1.84990000       0.01440000
H       -0.30440000       2.03950000      -0.87240000
H       -0.30830000       2.02410000       0.89750000
H       -1.05820000      -0.20370000      -0.00700000
H        0.11460000      -0.65920000      -2.16130000
H        1.83920000      -2.54280000      -1.33200000
H        2.98820000      -3.21310000       1.32340000
H        1.77870000      -2.82030000       2.55810000
H        1.31760000      -3.76730000       1.12780000
H        0.11110000      -0.68780000       2.14180000
