22
Properties=species:S:1:pos:R:3 gdb_116072=T pbc="F F F"
C       -0.02440000       1.56610000       0.13200000
C       -0.02110000       0.03880000       0.01120000
C        0.69370000      -0.50480000      -1.23470000
C        0.78290000      -2.03530000      -1.22490000
C        1.52180000      -2.52790000      -2.46080000
O        0.95980000      -2.04600000      -3.69060000
C        0.59570000      -0.73020000      -3.78050000
N        0.65170000      -0.10530000      -4.88060000
C        0.00750000      -0.08620000      -2.54540000
H        0.99570000       1.96600000       0.12140000
H       -0.57550000       2.04140000      -0.68500000
H       -0.49380000       1.88040000       1.06910000
H        0.46250000      -0.38940000       0.89880000
H       -1.05470000      -0.33420000       0.01970000
H        1.71990000      -0.10610000      -1.23980000
H        1.30980000      -2.39450000      -0.33320000
H       -0.22700000      -2.46530000      -1.20090000
H        2.57640000      -2.21900000      -2.41640000
H        1.49480000      -3.61740000      -2.54200000
H        1.04140000      -0.71610000      -5.60270000
H       -1.04880000      -0.38970000      -2.49420000
H        0.02310000       0.99230000      -2.70390000
