20
Properties=species:S:1:pos:R:3 gdb_63780=T pbc="F F F"
C        0.36600000       1.43770000       0.09160000
C        0.07420000      -0.05550000       0.00410000
C       -1.41100000      -0.32870000      -0.24380000
C        0.98700000      -0.89270000      -0.96370000
C        1.39280000      -1.83250000       0.21560000
C        0.58760000      -0.92800000       1.18540000
O        1.83980000      -0.45590000       1.77580000
C        2.58530000      -1.31440000       0.98020000
N        3.81950000      -1.53220000       0.95750000
H        1.41520000       1.62370000       0.33290000
H        0.14040000       1.92740000      -0.86230000
H       -0.24600000       1.91530000       0.86520000
H       -1.72620000       0.09400000      -1.20370000
H       -1.62580000      -1.40320000      -0.26790000
H       -2.02870000       0.11920000       0.54270000
H        0.43300000      -1.40060000      -1.75590000
H        1.82340000      -0.35390000      -1.41340000
H        1.28070000      -2.90770000       0.10030000
H       -0.10780000      -1.26120000       1.95700000
H        4.31080000      -0.95880000       1.64560000
