14
Properties=species:S:1:pos:R:3 gdb_49835=T pbc="F F F"
N       -0.06160000       1.15690000      -0.05980000
C       -0.07890000      -0.08820000       0.20020000
N       -1.27220000      -0.76390000       0.28670000
C       -2.54000000      -0.26660000      -0.27020000
C       -2.93830000      -1.72580000      -0.50560000
O       -3.89120000      -2.30830000      -0.90040000
C       -1.51710000      -2.18990000       0.01730000
C       -0.66400000      -2.83110000      -0.97710000
N        0.01690000      -3.32330000      -1.77130000
H        0.89070000       1.51490000      -0.05190000
H        0.78850000      -0.72790000       0.39760000
H       -3.16870000       0.29380000       0.42890000
H       -2.41690000       0.32170000      -1.18880000
H       -1.57200000      -2.81550000       0.91650000
