22
Properties=species:S:1:pos:R:3 gdb_101498=T pbc="F F F"
C        0.35910000       1.45420000       0.06620000
C        0.08620000      -0.04970000       0.00330000
C       -1.40850000      -0.40570000       0.00670000
C       -1.62230000      -1.91700000      -0.13980000
N       -1.99830000       0.03010000       1.27690000
C       -3.05830000       0.68980000       1.27900000
C       -3.94670000       1.29420000       2.34750000
C       -4.78550000       1.77140000       1.14480000
O       -3.85080000       1.13350000       0.22450000
H        1.43360000       1.66230000       0.05970000
H       -0.08620000       1.97450000      -0.78970000
H       -0.06280000       1.88720000       0.97800000
H        0.53710000      -0.47140000      -0.90370000
H        0.56010000      -0.54960000       0.85730000
H       -1.88870000       0.09940000      -0.84460000
H       -1.16240000      -2.28380000      -1.06330000
H       -1.17650000      -2.44950000       0.70630000
H       -2.68880000      -2.15900000      -0.16910000
H       -4.42580000       0.56880000       3.00710000
H       -3.47660000       2.07530000       2.94720000
H       -5.78500000       1.34030000       1.04830000
H       -4.82290000       2.85100000       0.97900000
