18
Properties=species:S:1:pos:R:3 gdb_110897=T pbc="F F F"
O        0.81490000      -0.68710000       0.95460000
C        0.09110000      -0.04250000      -0.07290000
C       -1.37740000      -0.44860000      -0.02490000
N       -2.02100000      -0.08650000       1.28210000
C       -3.46850000      -0.40340000       0.95220000
C       -3.39200000       0.78920000      -0.04680000
C       -2.42030000       1.35980000       1.02640000
C       -2.34710000       0.24070000      -1.01520000
O       -2.27760000       0.32720000      -2.21060000
H        0.27580000      -0.60210000       1.75170000
H        0.19570000       1.05270000      -0.01230000
H        0.52060000      -0.35320000      -1.02990000
H       -1.42800000      -1.53710000      -0.14330000
H       -3.64690000      -1.41180000       0.56940000
H       -4.10810000      -0.20410000       1.81470000
H       -4.24480000       1.31840000      -0.46770000
H       -2.93070000       1.76450000       1.90260000
H       -1.61590000       2.03100000       0.71820000
