18
Properties=species:S:1:pos:R:3 gdb_126169=T pbc="F F F"
C        0.08040000       1.53980000       0.15800000
C        0.02240000       0.01700000       0.02860000
C        0.66400000      -0.48710000      -1.27730000
O        2.02080000      -0.07490000      -1.40220000
C        0.54530000      -1.97690000      -1.41460000
C       -0.12310000      -2.80860000      -2.25720000
C        0.23520000      -4.10490000      -1.79840000
N        1.04990000      -4.06460000      -0.77420000
O        1.24520000      -2.70600000      -0.52290000
H        1.11240000       1.89270000       0.09120000
H       -0.49100000       2.02650000      -0.64030000
H       -0.33690000       1.86690000       1.11470000
H        0.53660000      -0.46030000       0.87250000
H       -1.01620000      -0.33390000       0.06300000
H        0.14650000      -0.03380000      -2.12990000
H        2.53440000      -0.56720000      -0.75110000
H       -0.76370000      -2.54150000      -3.08070000
H       -0.07030000      -5.06760000      -2.18380000
