22
Properties=species:S:1:pos:R:3 gdb_100077=T pbc="F F F"
C       -0.10840000       1.59910000       0.27780000
C       -0.00840000       0.09640000      -0.03920000
C        0.83980000      -0.61640000       1.02990000
C       -1.41990000      -0.51810000      -0.05760000
O       -2.02520000      -0.32950000       1.21230000
C        0.58850000      -0.13300000      -1.45580000
C        2.04800000       0.29330000      -1.58870000
N        2.94240000      -0.73230000      -1.73080000
O        2.40250000       1.45730000      -1.58770000
H        0.87520000       2.07030000       0.24780000
H       -0.74050000       2.10940000      -0.45790000
H       -0.55490000       1.74510000       1.26390000
H        0.35170000      -0.54710000       2.00440000
H        0.96510000      -1.68080000       0.79510000
H        1.83420000      -0.16770000       1.11050000
H       -2.01310000      -0.03720000      -0.85240000
H       -1.34870000      -1.59170000      -0.30060000
H       -2.91680000      -0.68630000       1.17800000
H        0.47690000      -1.18950000      -1.72940000
H        0.02210000       0.45550000      -2.18530000
H        2.67810000      -1.69210000      -1.59630000
H        3.92280000      -0.50020000      -1.72420000
