19
Properties=species:S:1:pos:R:3 gdb_74520=T pbc="F F F"
C        0.09760000       1.54570000      -0.04550000
C        0.02180000       0.05460000      -0.01980000
C       -1.02660000      -0.73560000       0.20010000
C       -0.62880000      -2.17530000       0.12860000
C       -1.06750000      -3.12040000       1.28160000
O       -1.99930000      -3.80220000       0.42010000
C       -1.48240000      -3.13430000      -0.74700000
O        0.76000000      -2.15820000      -0.15560000
C        1.22800000      -0.81750000      -0.26050000
H        0.80590000       1.91910000       0.70460000
H        0.45370000       1.90730000      -1.01830000
H       -0.87650000       2.00050000       0.15050000
H       -2.04280000      -0.42250000       0.40570000
H       -0.24920000      -3.77100000       1.61630000
H       -1.55930000      -2.66430000       2.14860000
H       -2.27630000      -2.68840000      -1.35720000
H       -0.85950000      -3.79150000      -1.36750000
H        1.66970000      -0.65120000      -1.25580000
H        2.02460000      -0.63930000       0.47920000
