23
Properties=species:S:1:pos:R:3 gdb_121734=T pbc="F F F"
C       -0.08610000       1.51160000       0.14710000
C       -0.00350000      -0.01130000       0.01160000
C        0.72560000      -0.45670000      -1.25990000
C        0.80990000      -1.97650000      -1.39970000
C        1.52930000      -2.43470000      -2.66320000
O        1.97420000      -1.66700000      -3.47900000
C        1.64690000      -3.95060000      -2.82310000
O        2.30790000      -4.26690000      -4.00920000
C        2.44410000      -5.65450000      -4.20630000
H        0.91310000       1.96000000       0.17720000
H       -0.62000000       1.95480000      -0.70070000
H       -0.61090000       1.80410000       1.06190000
H        0.50500000      -0.43030000       0.89050000
H       -1.01680000      -0.43540000       0.01950000
H        0.22460000      -0.04390000      -2.14310000
H        1.73900000      -0.03920000      -1.27590000
H        1.32050000      -2.42140000      -0.53310000
H       -0.19450000      -2.42480000      -1.39720000
H        2.17500000      -4.35330000      -1.93810000
H        0.62960000      -4.38440000      -2.79080000
H        3.02710000      -6.12810000      -3.40020000
H        1.46610000      -6.15880000      -4.26290000
H        2.97010000      -5.79610000      -5.15300000
