14
Properties=species:S:1:pos:R:3 gdb_42610=T pbc="F F F"
O       -0.08560000       0.03670000      -0.03450000
C       -0.07270000       1.22200000       0.03930000
C       -1.15450000       2.33330000      -0.00530000
C        0.05540000       3.23270000      -0.33970000
C        0.77120000       3.28070000       0.94010000
C       -0.17380000       3.09790000       2.11140000
C       -1.49050000       2.64120000       1.45750000
O       -2.55780000       2.52230000       1.98880000
N        1.06170000       2.12230000       0.00500000
H       -2.00610000       2.20220000      -0.66660000
H        0.19300000       3.84650000      -1.21850000
H        1.65610000       3.89410000       1.05780000
H        0.16060000       2.35950000       2.84750000
H       -0.32670000       4.04420000       2.63950000
