21
Properties=species:S:1:pos:R:3 gdb_88170=T pbc="F F F"
C        0.13590000       1.49760000      -0.28300000
C        0.16520000       0.00640000      -0.06240000
O        1.45050000      -0.60240000       0.13630000
C        0.51100000      -0.61830000       1.21940000
C        0.91620000       0.13890000       2.48980000
O        0.67510000      -0.74970000       3.57260000
C        0.71150000      -2.07590000       3.05110000
C       -0.00480000      -1.97940000       1.69440000
C       -1.53000000      -2.01410000       1.85440000
H        0.80650000       2.01550000       0.40700000
H        0.44720000       1.73820000      -1.30480000
H       -0.87890000       1.88540000      -0.14200000
H       -0.48240000      -0.56310000      -0.73350000
H        1.97990000       0.40930000       2.41760000
H        0.33500000       1.04980000       2.66540000
H        1.75080000      -2.41810000       2.92270000
H        0.21370000      -2.72870000       3.77310000
H        0.32720000      -2.75360000       0.99750000
H       -1.85960000      -1.26750000       2.58380000
H       -2.03860000      -1.81260000       0.90680000
H       -1.85910000      -2.99630000       2.20880000
