14
Properties=species:S:1:pos:R:3 gdb_129211=T pbc="F F F"
N       -0.14810000       1.39640000       0.06480000
C       -0.04930000       0.14150000      -0.09060000
N        1.17690000      -0.53090000      -0.28400000
N        1.48710000      -1.77660000      -0.65250000
C        0.65000000      -2.58760000      -1.21240000
C       -0.73720000      -2.36270000      -1.59680000
N       -1.58150000      -1.52890000      -1.11590000
C       -1.27060000      -0.73910000      -0.00170000
N       -1.98810000      -0.67900000       1.04290000
H        0.75150000       1.87060000      -0.04650000
H        1.99420000      -0.01710000       0.01500000
H        1.09130000      -3.53340000      -1.51520000
H       -1.09170000      -2.99960000      -2.41120000
H       -2.79500000      -1.30050000       0.93270000
