18
Properties=species:S:1:pos:R:3 gdb_28672=T pbc="F F F"
C        0.38460000       1.36130000       0.22530000
C        0.05790000      -0.07250000      -0.03270000
C       -0.58340000      -0.68230000      -1.08830000
C       -0.60480000      -2.08450000      -0.83820000
C        0.02060000      -2.29660000       0.36820000
C        0.23690000      -3.55900000       1.15890000
C        1.45080000      -3.53320000       1.97330000
C        2.43530000      -3.47050000       2.66060000
N        0.40940000      -1.06930000       0.84870000
H        1.46560000       1.53410000       0.30430000
H        0.01250000       1.97910000      -0.59520000
H       -0.07230000       1.73170000       1.15180000
H       -0.98880000      -0.17340000      -1.95000000
H       -1.03500000      -2.84970000      -1.46690000
H       -0.61950000      -3.75630000       1.82160000
H        0.27550000      -4.40610000       0.46430000
H        3.31340000      -3.44360000       3.25710000
H        0.95550000      -0.94730000       1.68570000
