20
Properties=species:S:1:pos:R:3 gdb_121024=T pbc="F F F"
C        0.04520000       1.50360000       0.07200000
C       -0.10600000      -0.00280000      -0.03710000
O        0.69610000      -0.45390000      -1.12700000
C        0.72300000      -1.82430000      -1.29700000
O       -0.57230000      -2.30540000      -1.75270000
C       -0.39290000      -2.62390000      -3.06200000
N        0.77020000      -2.61430000      -3.55830000
C        1.67650000      -2.23140000      -2.45460000
C        2.67610000      -1.16170000      -2.88300000
H        1.08980000       1.77610000       0.24640000
H       -0.28740000       1.99020000      -0.84910000
H       -0.55740000       1.88420000       0.90200000
H        0.22440000      -0.49970000       0.88910000
H       -1.15300000      -0.28300000      -0.20800000
H        0.91680000      -2.33440000      -0.34450000
H       -1.30450000      -2.88040000      -3.59070000
H        2.22430000      -3.13390000      -2.15500000
H        2.16020000      -0.25230000      -3.19560000
H        3.35350000      -0.90760000      -2.06290000
H        3.26620000      -1.53770000      -3.72220000
