21
Properties=species:S:1:pos:R:3 gdb_62558=T pbc="F F F"
C       -0.02620000       1.51900000       0.05370000
C        0.08910000       0.00320000       0.06050000
C       -1.14920000      -0.68530000      -0.50070000
C        1.38510000      -0.75910000      -0.24010000
O        1.45340000      -1.76010000      -1.19690000
C        2.61390000      -0.03120000       0.30810000
C        1.97790000      -0.07230000       1.73840000
C        0.75930000      -0.78710000       1.16800000
O        0.14000000      -1.76430000       1.92610000
H        0.85860000       2.01230000       0.46180000
H       -0.17270000       1.89460000      -0.96630000
H       -0.88790000       1.84630000       0.64780000
H       -1.38650000      -0.29930000      -1.49860000
H       -1.01480000      -1.76540000      -0.59770000
H       -2.02690000      -0.49050000       0.12960000
H        1.39210000      -1.35750000      -2.07110000
H        3.50790000      -0.65480000       0.23880000
H        2.83810000       0.95790000      -0.10510000
H        2.53560000      -0.72540000       2.41310000
H        1.80120000       0.88490000       2.23880000
H       -0.76900000      -1.86900000       1.62890000
