21
Properties=species:S:1:pos:R:3 gdb_89307=T pbc="F F F"
C        0.02240000       1.46830000       0.16530000
C       -0.02550000      -0.02150000      -0.01890000
C        0.65520000      -0.77670000      -1.18570000
C        0.70240000      -1.86040000      -0.09080000
C        1.73620000      -2.94540000      -0.00510000
O        0.83460000      -0.78270000       0.91030000
C       -0.78880000      -2.22570000       0.14940000
O       -0.96170000      -2.88180000       1.38680000
C       -1.36640000      -0.77460000       0.11820000
H        1.04530000       1.84240000       0.06730000
H       -0.60270000       1.96360000      -0.58500000
H       -0.35320000       1.74510000       1.15600000
H        0.08440000      -0.96530000      -2.09940000
H        1.64870000      -0.38350000      -1.41050000
H        2.74600000      -2.52670000      -0.01830000
H        1.60230000      -3.52580000       0.91190000
H        1.63160000      -3.62870000      -0.85470000
H       -1.20550000      -2.88700000      -0.61470000
H       -0.50600000      -2.32450000       2.03280000
H       -1.88490000      -0.54340000       1.05220000
H       -2.04700000      -0.58630000      -0.71700000
