22
Properties=species:S:1:pos:R:3 gdb_117694=T pbc="F F F"
C        0.08280000       1.55110000      -0.16330000
C        0.13670000       0.04850000       0.06320000
O        0.64230000      -0.54100000      -1.12370000
C        0.69620000      -1.96410000      -1.21210000
C        1.43000000      -2.60310000      -0.02460000
C       -0.71250000      -2.55710000      -1.37560000
C        1.48080000      -2.19760000      -2.52840000
C        2.85160000      -1.69430000      -2.48090000
N        3.94300000      -1.31660000      -2.44590000
H        1.07910000       1.93600000      -0.39740000
H       -0.58200000       1.79100000      -0.99790000
H       -0.28590000       2.05740000       0.73370000
H        0.78610000      -0.18060000       0.91990000
H       -0.86750000      -0.33500000       0.29920000
H        0.85320000      -2.50530000       0.89870000
H        1.58070000      -3.67190000      -0.20510000
H        2.40840000      -2.13810000       0.12220000
H       -1.23080000      -2.08410000      -2.21470000
H       -0.66460000      -3.63540000      -1.55680000
H       -1.31000000      -2.40360000      -0.47310000
H        1.50570000      -3.26630000      -2.76490000
H        0.95190000      -1.68910000      -3.34080000
