15
Properties=species:S:1:pos:R:3 gdb_106029=T pbc="F F F"
C       -0.24150000       1.32570000      -0.02310000
O        0.21480000      -0.02580000       0.04600000
C        0.79080000      -0.46520000      -1.10350000
C        0.00990000      -0.99560000      -2.32210000
O        0.84480000      -0.90160000      -3.48050000
C        1.91390000      -1.43130000      -2.63970000
C        0.87350000      -1.95360000      -1.59120000
C        2.18770000      -0.27910000      -1.63180000
O        3.16160000       0.31220000      -1.26590000
H        0.59430000       2.01260000      -0.19770000
H       -0.98600000       1.45300000      -0.81940000
H       -0.69910000       1.54710000       0.94230000
H       -1.06530000      -0.90980000      -2.41440000
H        2.69120000      -1.97950000      -3.16360000
H        0.74280000      -2.86380000      -1.02570000
