20
Properties=species:S:1:pos:R:3 gdb_118802=T pbc="F F F"
C        0.10400000       1.51870000      -0.23790000
C       -0.13000000       0.01840000      -0.22130000
O        0.92680000      -0.59430000      -0.95520000
C        0.80430000      -1.96480000      -1.15730000
C        1.08760000      -2.83350000       0.04940000
C       -0.17150000      -2.41780000      -2.20730000
C        1.32810000      -2.42490000      -2.50920000
C        1.86360000      -1.46930000      -3.43650000
N        2.30630000      -0.72110000      -4.19940000
H        1.06610000       1.76160000       0.22150000
H        0.11130000       1.89380000      -1.26480000
H       -0.68670000       2.03100000       0.31820000
H       -0.14700000      -0.35730000       0.81230000
H       -1.09810000      -0.23310000      -0.67940000
H        0.33830000      -2.67560000       0.83160000
H        1.06880000      -3.89390000      -0.21670000
H        2.07190000      -2.59470000       0.46310000
H       -0.65910000      -3.38070000      -2.10570000
H       -0.75350000      -1.65330000      -2.70770000
H        1.82230000      -3.39040000      -2.53480000
