17
Properties=species:S:1:pos:R:3 gdb_45237=T pbc="F F F"
O       -0.01660000      -0.02650000      -0.12780000
C       -0.03200000       1.17030000      -0.00270000
C       -1.27230000       2.07610000       0.10370000
C       -0.63400000       3.40380000       0.50970000
O       -0.02710000       3.16980000       1.81020000
C        1.32160000       2.88980000       1.41860000
C        1.69870000       4.13880000       0.59180000
C        0.64700000       3.53160000      -0.36490000
C        1.15760000       2.10810000       0.05350000
H       -1.76620000       2.13760000      -0.87490000
H       -1.99100000       1.69340000       0.83130000
H       -1.29480000       4.27050000       0.55340000
H        1.88970000       2.50260000       2.26220000
H        1.50020000       5.10880000       1.05400000
H        2.70660000       4.09880000       0.17420000
H        0.52110000       3.83230000      -1.40420000
H        2.08490000       1.73980000      -0.37950000
