20
Properties=species:S:1:pos:R:3 gdb_40338=T pbc="F F F"
C       -0.32400000       1.29430000      -0.24800000
C        1.10160000       1.22040000       0.23110000
C        0.29980000      -0.04980000       0.04360000
C       -0.16130000      -0.81710000       1.21510000
C       -1.46060000      -1.40180000       1.63610000
C       -0.80910000      -2.70410000       2.09170000
C        0.50100000      -1.88000000       2.19890000
C        0.15700000      -0.86930000       3.30130000
N       -0.86250000      -0.23910000       2.39920000
H       -1.06560000       1.64830000       0.45850000
H       -0.51170000       1.55300000      -1.28390000
H        1.89900000       1.42710000      -0.47410000
H        1.30140000       1.54130000       1.24730000
H        0.56360000      -0.65830000      -0.81770000
H       -2.44960000      -1.23410000       1.23010000
H       -1.17290000      -3.19510000       3.00120000
H       -0.77600000      -3.42440000       1.27010000
H        1.47600000      -2.35620000       2.11380000
H       -0.23190000      -1.25220000       4.25290000
H        0.94650000      -0.13830000       3.49290000
