20
Properties=species:S:1:pos:R:3 gdb_103154=T pbc="F F F"
C       -0.00720000       1.68230000      -0.03110000
C        0.02690000       0.15110000      -0.09180000
C       -1.36860000      -0.47220000      -0.04360000
O       -2.19250000      -0.00990000      -1.09900000
C       -1.47850000      -2.01870000       0.10740000
C       -0.25850000      -2.90710000       0.15330000
O       -2.07730000      -1.83080000       1.44650000
C       -2.06410000      -0.46800000       1.31210000
N       -2.52060000       0.44640000       2.04230000
H        1.00740000       2.09020000      -0.03480000
H       -0.53210000       2.09440000      -0.89810000
H       -0.51370000       2.02670000       0.87520000
H        0.51210000      -0.17790000      -1.01900000
H        0.62530000      -0.23680000       0.73990000
H       -2.58740000       0.82120000      -0.81180000
H       -2.24180000      -2.41000000      -0.57030000
H        0.49120000      -2.53200000       0.85400000
H       -0.54370000      -3.91590000       0.46590000
H        0.19380000      -2.97620000      -0.84120000
H       -2.98240000       0.07360000       2.87400000
