19
Properties=species:S:1:pos:R:3 gdb_107732=T pbc="F F F"
C        0.17350000       1.24960000       0.20880000
O       -0.17490000      -0.05650000      -0.22100000
C        0.55990000      -0.49320000      -1.29510000
C        0.40660000      -0.08190000      -2.76070000
C        1.24620000      -1.36700000      -3.05280000
O        1.06000000      -2.10590000      -4.20930000
C        2.66250000      -1.04130000      -2.49080000
C        1.98360000      -1.06860000      -1.12210000
C        0.83670000      -1.92470000      -1.63270000
H        1.23140000       1.30700000       0.49950000
H       -0.01510000       1.99720000      -0.57420000
H       -0.45250000       1.47760000       1.07410000
H       -0.62590000      -0.21410000      -3.09540000
H        0.80580000       0.88040000      -3.10310000
H        1.30170000      -1.55670000      -4.96370000
H        3.33580000      -1.89380000      -2.62090000
H        3.15000000      -0.11910000      -2.83050000
H        2.43560000      -1.11810000      -0.14010000
H        0.41170000      -2.85730000      -1.29450000
