21
Properties=species:S:1:pos:R:3 gdb_103412=T pbc="F F F"
C       -0.14490000       1.55660000      -0.01190000
C        0.02850000       0.04500000      -0.04740000
C        0.72980000      -0.60650000      -1.24790000
C        2.17310000      -0.19890000      -1.32300000
C        1.77460000      -1.25300000      -0.32980000
C        1.12620000      -0.61400000       0.89280000
O        1.97920000       0.27040000       1.58980000
C        0.54710000      -1.62700000       1.86860000
O       -0.12840000      -0.87490000       2.87590000
H        0.80800000       2.07740000      -0.13150000
H       -0.81920000       1.88820000      -0.80930000
H       -0.57640000       1.87220000       0.94410000
H       -0.93730000      -0.43580000       0.13700000
H        0.22300000      -1.05540000      -2.09390000
H        2.71300000      -0.57300000      -2.18710000
H        2.50580000       0.77400000      -0.97740000
H        2.18950000      -2.25450000      -0.35570000
H        1.51650000       0.48850000       2.40970000
H       -0.13770000      -2.31360000       1.35080000
H        1.36900000      -2.21560000       2.30300000
H       -0.33760000      -1.45860000       3.61000000
