20
Properties=species:S:1:pos:R:3 gdb_8522=T pbc="F F F"
C       -0.12150000       1.56230000      -0.00550000
C       -0.06080000       0.03570000      -0.00540000
C       -1.42450000      -0.55780000      -0.35540000
C        1.18210000      -0.61830000      -0.67080000
C        2.11960000      -0.27660000       0.54150000
C        2.62710000      -1.72510000       0.65510000
C        1.14160000      -1.86810000       0.27890000
C        0.72090000      -0.63660000       1.15750000
H        0.84150000       2.01730000       0.24210000
H       -0.42610000       1.94030000      -0.98860000
H       -0.85790000       1.92320000       0.72240000
H       -1.75410000      -0.22040000      -1.34520000
H       -1.41300000      -1.65120000      -0.36340000
H       -2.18570000      -0.23760000       0.36590000
H        1.47400000      -0.62390000      -1.72420000
H        2.67450000       0.64990000       0.69080000
H        3.35880000      -2.05150000      -0.09150000
H        2.91860000      -2.06890000       1.65320000
H        0.56610000      -2.78100000       0.12460000
H        0.47820000      -0.66330000       2.22300000
