18
Properties=species:S:1:pos:R:3 gdb_65649=T pbc="F F F"
O        0.02100000       1.32840000       0.24540000
C        0.04110000      -0.04820000       0.05470000
C        0.32560000      -0.92990000       1.31450000
N       -0.91780000      -1.73340000       1.10900000
C       -2.06010000      -1.22440000       1.93880000
C       -2.46520000      -0.19390000       0.84740000
C       -1.33310000      -0.79660000      -0.00910000
C        0.91380000      -0.39960000      -1.12450000
O        1.44910000       0.44980000      -1.79670000
H        0.53150000       1.70620000      -0.49010000
H        1.23710000      -1.53570000       1.28710000
H        0.33080000      -0.32240000       2.22560000
H       -2.79970000      -2.01130000       2.11260000
H       -1.75460000      -0.81670000       2.90810000
H       -3.46820000      -0.31490000       0.43470000
H       -2.30910000       0.85530000       1.10340000
H       -1.61560000      -1.24230000      -0.96800000
H        1.02740000      -1.48000000      -1.34450000
