16
Properties=species:S:1:pos:R:3 gdb_66884=T pbc="F F F"
C        0.05330000       1.54740000      -0.00100000
C       -0.04190000       0.05390000       0.01110000
C        0.08870000      -0.79510000       1.25580000
C       -0.64430000      -2.09620000       1.36310000
C       -0.38430000      -2.81120000       0.26960000
C        0.45010000      -1.95950000      -0.65320000
N        1.14400000      -0.92100000       0.24080000
C       -0.41490000      -0.78120000      -1.17130000
O       -0.90880000      -0.51270000      -2.22960000
H        0.73270000       1.89970000       0.78020000
H        0.41440000       1.90560000      -0.96960000
H       -0.93140000       1.99230000       0.17740000
H        0.36900000      -0.24580000       2.15170000
H       -1.27360000      -2.36480000       2.20040000
H       -0.78850000      -3.77610000      -0.00440000
H        1.09850000      -2.45240000      -1.37560000
