15
Properties=species:S:1:pos:R:3 gdb_9080=T pbc="F F F"
C       -0.15240000       1.50740000      -0.04570000
C        0.04060000      -0.01420000       0.01220000
O        0.68550000      -0.53610000      -1.13680000
C       -0.14180000      -0.67620000      -2.27000000
C        0.62240000      -1.49040000      -3.30430000
O        0.22680000      -1.66460000      -4.42450000
C        0.86660000      -0.38970000       1.17280000
N        1.49250000      -0.66180000       2.10390000
H        0.81200000       2.00200000      -0.18120000
H       -0.81040000       1.77280000      -0.87680000
H       -0.60820000       1.86690000       0.88050000
H       -0.93960000      -0.50210000       0.14030000
H       -1.07390000      -1.21390000      -2.02630000
H       -0.42410000       0.28780000      -2.71700000
H        1.57520000      -1.91670000      -2.92330000
