16
Properties=species:S:1:pos:R:3 gdb_12870=T pbc="F F F"
O        0.03700000       1.37420000      -0.09960000
C       -0.07270000      -0.01220000      -0.03590000
C       -0.45210000      -0.77070000       1.23760000
C       -1.13460000       0.03670000       2.28470000
C       -2.29590000       0.54200000       1.84890000
C       -2.60970000       0.09990000       0.43630000
C       -1.38880000      -0.73340000       0.02790000
O       -1.59150000      -1.89260000      -0.72200000
H       -0.38650000       1.73480000       0.69100000
H        0.69190000      -0.49180000      -0.64040000
H        0.12100000      -1.65440000       1.49420000
H       -0.71020000       0.20160000       3.26860000
H       -2.95570000       1.18400000       2.42150000
H       -3.51680000      -0.51570000       0.39150000
H       -2.76270000       0.95310000      -0.23770000
H       -1.60970000      -1.64640000      -1.65350000
