23
Properties=species:S:1:pos:R:3 gdb_94611=T pbc="F F F"
C        0.33450000       1.71870000      -0.11140000
C       -0.00600000       0.24120000       0.06820000
C        0.90660000      -0.72630000      -0.74710000
C        1.75880000      -0.96770000       0.53030000
C        0.57150000      -0.40220000       1.35720000
O        0.83230000       0.50280000       2.40460000
C        1.33700000      -0.09950000       3.55600000
C        1.05790000       0.59870000       4.84600000
C        0.37730000      -0.72220000       4.53930000
H        1.40870000       1.90290000      -0.01140000
H        0.02500000       2.05960000      -1.10520000
H       -0.17270000       2.33310000       0.63760000
H       -1.08220000       0.09590000      -0.06600000
H        0.37850000      -1.62720000      -1.07040000
H        1.41980000      -0.29730000      -1.61120000
H        2.09150000      -1.98700000       0.73980000
H        2.62020000      -0.29590000       0.57930000
H       -0.07260000      -1.21660000       1.71880000
H        2.30990000      -0.57420000       3.42800000
H        1.83580000       0.62660000       5.60050000
H        0.44780000       1.49260000       4.78560000
H       -0.67640000      -0.68290000       4.28680000
H        0.68430000      -1.60970000       5.08190000
