16
Properties=species:S:1:pos:R:3 gdb_27192=T pbc="F F F"
O        0.15060000       1.34330000      -0.19270000
C        0.04530000      -0.01190000      -0.10100000
C       -0.24920000      -0.87410000      -1.13500000
C        0.08080000      -1.36170000      -2.52740000
C        1.39260000      -2.13130000      -2.45320000
C        0.13290000      -2.75820000      -1.91290000
N       -0.25110000      -2.16860000      -0.61870000
C        0.10080000      -2.15530000       0.70340000
C        0.19550000      -0.82360000       1.07190000
H        0.31040000       1.69750000       0.68690000
H       -0.37140000      -1.05960000      -3.46190000
H        1.75440000      -2.55360000      -3.38780000
H        2.16870000      -1.80590000      -1.76760000
H       -0.29460000      -3.69190000      -2.25390000
H        0.14300000      -3.04830000       1.30760000
H        0.30230000      -0.45630000       2.08420000
