18
Properties=species:S:1:pos:R:3 gdb_40750=T pbc="F F F"
C       -0.08620000       1.42640000      -0.04220000
N        1.13090000       0.60310000      -0.10780000
C       -0.18360000      -0.05240000       0.03150000
C       -0.40150000      -0.75040000       1.33790000
O       -1.80900000      -0.86680000       1.71760000
C       -1.69660000      -2.28730000       1.91130000
C       -2.01510000      -3.08990000       0.64350000
O       -0.64550000      -2.94860000       0.17600000
C       -0.24730000      -2.28480000       1.39170000
H       -0.18580000       2.02130000       0.86160000
H       -0.44400000       1.91280000      -0.94560000
H        1.45150000       0.52620000      -1.06900000
H       -0.58860000      -0.57390000      -0.83090000
H        0.16680000      -0.24360000       2.12890000
H       -2.06270000      -2.62410000       2.88220000
H       -2.26500000      -4.14530000       0.81090000
H       -2.74490000      -2.62930000      -0.03010000
H        0.64030000      -2.72340000       1.84910000
