17
Properties=species:S:1:pos:R:3 gdb_68100=T pbc="F F F"
C       -0.00490000       1.49790000       0.00670000
C       -0.00470000      -0.00200000      -0.00180000
C        0.59340000      -0.97490000      -1.08290000
C        0.00830000      -1.97020000      -0.01310000
C        0.61420000      -0.98710000       1.05640000
C        0.03220000      -3.39580000      -0.02150000
C        0.03180000      -4.59870000      -0.02830000
C       -1.19080000      -0.97720000       0.00410000
O       -2.37990000      -0.97960000       0.01600000
H        1.01460000       1.89660000      -0.00020000
H       -0.52870000       1.89080000      -0.87050000
H       -0.51270000       1.88080000       0.89770000
H        0.13690000      -0.98170000      -2.07430000
H        1.68500000      -0.97570000      -1.13290000
H        1.70650000      -0.98830000       1.08510000
H        0.17700000      -1.00530000       2.05620000
H        0.02750000      -5.66050000      -0.03430000
