18
Properties=species:S:1:pos:R:3 gdb_12080=T pbc="F F F"
O       -0.09790000       1.44400000      -0.02740000
C        0.04090000       0.02680000       0.08390000
C       -1.36660000      -0.54440000      -0.02650000
O       -2.17520000       0.03690000       0.97810000
C       -2.06670000      -0.52740000      -1.43740000
C       -2.26940000      -2.04490000      -1.32580000
C       -0.94230000      -2.73050000      -1.19490000
C       -1.53800000      -2.06380000       0.01790000
H        0.73090000       1.85700000       0.22900000
H        0.69400000      -0.36840000      -0.70540000
H        0.46340000      -0.25440000       1.05980000
H       -1.95940000       0.97890000       0.96560000
H       -2.99550000       0.04070000      -1.37210000
H       -1.48140000      -0.17790000      -2.29450000
H       -3.16450000      -2.58260000      -1.61240000
H       -0.97340000      -3.81540000      -1.17190000
H       -0.06060000      -2.32940000      -1.68910000
H       -1.77300000      -2.60470000       0.92640000
