17
Properties=species:S:1:pos:R:3 gdb_33428=T pbc="F F F"
N        0.25150000      -1.19340000      -0.13110000
C        0.13840000      -0.04530000      -0.08750000
C        0.00910000       1.41780000      -0.02280000
C        1.39420000       2.13160000       0.05900000
C        2.14600000       1.80730000       1.32820000
C        3.03480000       0.58940000       1.41560000
C        3.64630000       1.96470000       1.36700000
C       -0.76920000       1.91270000      -1.16690000
N       -1.36190000       2.34230000      -2.05960000
H       -0.55630000       1.65720000       0.88760000
H        1.98140000       1.85230000      -0.82120000
H        1.19970000       3.20710000      -0.01190000
H        1.61820000       2.08100000       2.23900000
H        3.05940000       0.04310000       2.35130000
H        3.12070000      -0.03880000       0.53620000
H        4.14670000       2.26620000       0.45260000
H        4.09150000       2.36840000       2.26910000
