18
Properties=species:S:1:pos:R:3 gdb_24714=T pbc="F F F"
C        0.17670000       1.57360000      -0.18030000
C        1.64060000       1.48100000       0.34090000
C        1.49030000      -0.06530000       0.52410000
C       -0.01650000       0.04640000       0.04920000
N        0.36360000      -0.80020000      -1.09400000
C        0.18400000      -1.13380000      -2.41010000
C        1.43970000      -1.49040000      -2.87780000
C        2.41190000      -1.28650000      -1.84590000
C        1.68940000      -0.85820000      -0.75420000
H       -0.47420000       2.18410000       0.44980000
H        0.04890000       1.88370000      -1.21920000
H        2.42760000       1.78780000      -0.34960000
H        1.78300000       2.00470000       1.28940000
H        1.79190000      -0.49920000       1.47710000
H       -0.88450000      -0.29490000       0.61470000
H       -0.78440000      -1.17700000      -2.88200000
H        1.63950000      -1.90010000      -3.85780000
H        3.47440000      -1.45630000      -1.92230000
