18
Properties=species:S:1:pos:R:3 gdb_36490=T pbc="F F F"
N       -0.01710000      -1.15800000      -0.01730000
C       -0.00610000      -0.00330000       0.03000000
C        0.03420000       1.45620000       0.09430000
C        1.46910000       2.01840000       0.03920000
C        2.22950000       1.67200000      -1.26930000
C        3.19460000       2.85470000      -1.52250000
C        2.50820000       4.03130000      -0.85900000
O        1.10800000       4.13520000      -1.16780000
C        1.49460000       3.53710000       0.07780000
H       -0.54440000       1.86560000      -0.74160000
H       -0.46650000       1.77370000       1.01640000
H        2.02470000       1.64800000       0.91010000
H        2.74380000       0.71160000      -1.20360000
H        1.51380000       1.60230000      -2.09230000
H        4.16430000       2.69460000      -1.03540000
H        3.38640000       3.01780000      -2.58710000
H        3.02110000       4.97940000      -0.71970000
H        1.19210000       4.07760000       0.97220000
