13
Properties=species:S:1:pos:R:3 gdb_20330=T pbc="F F F"
C       -0.47380000      -0.72650000      -1.00650000
C       -0.12480000       0.14460000      -0.25810000
C        0.27140000       1.19530000       0.66830000
N        1.51840000       1.84660000       0.28160000
C        2.33790000       1.64140000      -0.77020000
N        3.36380000       2.47270000      -0.71900000
C        3.11310000       3.18110000       0.41440000
N        2.00770000       2.84280000       1.05950000
H       -0.78580000      -1.49860000      -1.66660000
H       -0.50900000       1.96220000       0.73130000
H        0.39920000       0.78650000       1.67690000
H        2.14570000       0.89430000      -1.52310000
H        3.75950000       3.96690000       0.77630000
