19
Properties=species:S:1:pos:R:3 gdb_23351=T pbc="F F F"
O       -0.22160000       1.37390000       0.17150000
N        0.00410000      -0.01770000       0.14750000
C       -1.07850000      -0.64610000      -0.03950000
C       -2.52020000      -0.27810000      -0.32200000
C       -2.73490000      -1.75690000      -0.77370000
C       -1.32810000      -2.12960000      -0.20200000
N       -3.84870000      -2.43540000      -0.14580000
C       -5.11330000      -2.41470000      -0.87780000
C       -4.30620000      -3.66240000      -0.79490000
H        0.66810000       1.71900000       0.30120000
H       -3.08450000      -0.04780000       0.58750000
H       -2.68650000       0.51350000      -1.05590000
H       -2.75500000      -1.84100000      -1.87260000
H       -0.64540000      -2.68420000      -0.84960000
H       -1.42180000      -2.65080000       0.75630000
H       -6.00660000      -2.29290000      -0.27240000
H       -5.13890000      -1.90200000      -1.83800000
H       -3.79220000      -3.98320000      -1.69960000
H       -4.59990000      -4.46760000      -0.12800000
