21
Properties=species:S:1:pos:R:3 gdb_108217=T pbc="F F F"
C       -0.03430000       1.55110000       0.11180000
C        0.11500000       0.05970000       0.03540000
C        0.57000000      -0.73180000      -1.19820000
C        1.32300000      -1.74110000      -0.26910000
C        0.85740000      -0.94540000       0.95440000
C        1.60310000      -0.73310000       2.24600000
O        1.30750000      -1.72530000       3.22150000
C       -0.64510000      -0.88880000       0.93360000
O       -1.18610000      -0.37500000       2.12400000
H        0.88810000       2.06310000      -0.18400000
H       -0.83090000       1.90120000      -0.55770000
H       -0.28520000       1.87040000       1.12750000
H       -0.23020000      -1.14210000      -1.82490000
H        1.25170000      -0.16490000      -1.83740000
H        1.00240000      -2.78730000      -0.31390000
H        2.40630000      -1.70400000      -0.40820000
H        2.68240000      -0.79560000       2.06810000
H        1.39350000       0.27330000       2.63490000
H        0.36900000      -1.62760000       3.41950000
H       -1.21800000      -1.71570000       0.50270000
H       -2.00180000       0.09260000       1.91720000
