20
Properties=species:S:1:pos:R:3 gdb_79136=T pbc="F F F"
C       -0.07120000       1.49750000       0.04300000
C       -0.00950000      -0.02420000      -0.01170000
C        0.79250000      -0.54290000      -1.21900000
C        1.97210000      -0.85630000      -0.35680000
C        1.09730000      -0.64620000       0.90700000
C        0.70920000      -2.06560000       1.31580000
O       -0.45860000      -2.04150000       2.12070000
C        0.53100000      -2.75140000      -0.07030000
N        1.26140000      -1.92860000      -1.05420000
H        0.92610000       1.93980000      -0.06190000
H       -0.69770000       1.89600000      -0.76290000
H       -0.49360000       1.83720000       0.99430000
H       -1.01060000      -0.44470000       0.12530000
H        0.75150000      -0.15270000      -2.23150000
H        3.03720000      -0.71420000      -0.49390000
H        1.46220000      -0.01640000       1.71810000
H        1.54000000      -2.53670000       1.86510000
H       -0.67590000      -2.94660000       2.36350000
H        0.94900000      -3.76280000      -0.09030000
H       -0.53160000      -2.81780000      -0.32600000
