19
Properties=species:S:1:pos:R:3 gdb_66386=T pbc="F F F"
C        0.08790000       1.49950000       0.15600000
C        0.00620000      -0.01550000       0.01580000
O        0.71380000      -0.35630000      -1.16610000
C        0.89130000      -1.76350000      -1.33710000
C        1.57180000      -2.36670000      -0.11060000
C        0.75850000      -1.98720000       1.12540000
O        0.56190000      -0.57130000       1.17230000
C       -1.47410000      -0.41170000      -0.19170000
O       -2.15260000      -1.01940000       0.59140000
H        1.14140000       1.78410000       0.19920000
H       -0.37710000       1.99130000      -0.70160000
H       -0.41050000       1.81460000       1.07520000
H       -0.07930000      -2.25640000      -1.51180000
H        1.49180000      -1.87850000      -2.24270000
H        1.63880000      -3.45590000      -0.20630000
H        2.58700000      -1.96500000      -0.02470000
H       -0.20990000      -2.50210000       1.12870000
H        1.28290000      -2.23890000       2.05030000
H       -1.87360000      -0.05480000      -1.16910000
