19
Properties=species:S:1:pos:R:3 gdb_73227=T pbc="F F F"
C        0.08460000       1.61450000       0.01720000
C        0.08450000       0.10860000       0.07810000
O       -1.24020000      -0.45610000       0.33070000
C       -0.76970000      -1.15260000       1.50620000
C        0.67870000      -0.68110000       1.27620000
C        1.64400000      -1.73300000       0.69350000
C        1.19260000      -1.94560000      -0.76500000
C        0.63260000      -0.58700000      -1.18620000
O        0.61780000      -0.12140000      -2.29550000
H        1.10930000       1.99620000      -0.04500000
H       -0.45110000       1.94700000      -0.87630000
H       -0.39680000       2.03800000       0.90270000
H       -1.25290000      -0.77470000       2.41530000
H       -0.93760000      -2.23550000       1.44130000
H        1.11660000      -0.09970000       2.08830000
H        2.66600000      -1.33790000       0.70920000
H        1.64740000      -2.65690000       1.27940000
H        1.97920000      -2.27690000      -1.44480000
H        0.37610000      -2.67630000      -0.82560000
