21
Properties=species:S:1:pos:R:3 gdb_113464=T pbc="F F F"
C        0.26860000       1.52650000       0.09100000
C       -0.24940000       0.12070000      -0.19970000
N        0.52600000      -0.50380000      -1.26780000
C        1.71980000      -1.26090000      -0.87690000
C        0.50160000      -1.94300000      -1.37850000
C       -0.33030000      -3.00810000      -0.60190000
C       -0.46350000      -3.76030000      -1.93460000
N       -1.16490000      -2.83400000      -2.85450000
C        0.30780000      -2.71480000      -2.66510000
H        1.30520000       1.49690000       0.44320000
H        0.23770000       2.14040000      -0.81350000
H       -0.33720000       2.01070000       0.86320000
H       -0.23700000      -0.48050000       0.72690000
H       -1.29140000       0.16510000      -0.53670000
H        2.59550000      -1.13040000      -1.50870000
H        1.93790000      -1.36430000       0.18680000
H        0.25670000      -3.53990000       0.15030000
H       -1.27800000      -2.67720000      -0.16990000
H       -0.48960000      -4.83160000      -2.08580000
H       -1.30400000      -3.33340000      -3.73360000
H        0.98690000      -2.79330000      -3.50500000
