12
Properties=species:S:1:pos:R:3 gdb_131921=T pbc="F F F"
O       -0.04640000       0.08240000      -0.42200000
N       -0.02820000       1.22180000       0.00720000
O        0.93810000       1.83120000       0.42900000
C       -1.34050000       1.95560000       0.01760000
N       -1.26160000       3.24310000      -0.25180000
C       -2.43420000       3.88420000      -0.25500000
C       -3.63010000       3.23590000       0.03560000
C       -3.55290000       1.87560000       0.31620000
N       -2.39270000       1.21240000       0.29470000
H       -2.40480000       4.94380000      -0.49380000
H       -4.57520000       3.76430000       0.04310000
H       -4.43720000       1.29410000       0.56180000
