20
Properties=species:S:1:pos:R:3 gdb_41691=T pbc="F F F"
C       -0.03070000       1.48830000       0.27040000
C        1.49330000       1.56220000      -0.04570000
C        1.47010000       0.09160000      -0.53710000
C       -0.02600000      -0.03160000      -0.06260000
O       -0.94950000      -0.49070000      -1.04680000
C       -0.38350000      -0.65380000      -2.33760000
C        0.95160000      -1.43070000      -2.27440000
N        1.64980000      -0.11640000      -1.98050000
C        0.50820000       0.54390000      -2.72520000
H       -0.31840000       1.73570000       1.29490000
H       -0.66400000       2.06240000      -0.40980000
H        1.79690000       2.28950000      -0.80220000
H        2.12240000       1.70970000       0.83470000
H        2.16660000      -0.57950000      -0.02580000
H       -0.16690000      -0.65870000       0.82290000
H       -1.19390000      -0.98770000      -2.98980000
H        1.05740000      -2.19910000      -1.50380000
H        1.27620000      -1.82230000      -3.24260000
H        0.74700000       0.57150000      -3.79230000
H        0.21870000       1.54250000      -2.39540000
