18
Properties=species:S:1:pos:R:3 gdb_7221=T pbc="F F F"
C        0.02810000       1.49040000       0.10860000
C       -0.00070000       0.03890000       0.00650000
C       -0.01010000      -1.16160000      -0.09160000
C       -0.06380000      -2.61840000      -0.18160000
O       -1.39640000      -3.07790000      -0.46210000
C        0.81450000      -3.18210000      -1.32490000
C        0.92700000      -4.70680000      -1.23910000
O        0.29620000      -2.76420000      -2.57220000
H        0.93420000       1.89810000      -0.35260000
H       -0.83140000       1.93890000      -0.40130000
H        0.00690000       1.82080000       1.15280000
H        0.27960000      -3.05170000       0.77070000
H       -2.00910000      -2.45130000      -0.06580000
H        1.80960000      -2.73280000      -1.23670000
H       -0.06510000      -5.16710000      -1.26050000
H        1.50190000      -5.07860000      -2.09090000
H        1.43060000      -5.01660000      -0.31670000
H       -0.65830000      -2.90200000      -2.51070000
