18
Properties=species:S:1:pos:R:3 gdb_48943=T pbc="F F F"
O       -0.13060000      -0.00640000      -0.13160000
C       -0.02140000       1.18290000       0.04140000
C        1.26680000       1.93320000       0.00030000
C        1.45040000       3.14680000       0.95860000
C        2.17020000       3.95240000      -0.15050000
C        3.58980000       3.42440000      -0.44590000
N        3.06300000       2.25440000      -1.23350000
C        2.57710000       1.18370000      -0.29570000
C        1.68490000       2.89530000      -1.18810000
H       -0.92020000       1.81830000       0.22840000
H        0.47590000       3.59240000       1.18720000
H        1.98400000       2.96470000       1.89670000
H        1.98620000       5.02540000      -0.20580000
H        4.15490000       4.08490000      -1.11080000
H        4.22580000       3.15630000       0.40550000
H        3.24420000       0.97610000       0.54750000
H        2.39330000       0.25550000      -0.84260000
H        1.12650000       3.06060000      -2.10890000
