16
Properties=species:S:1:pos:R:3 gdb_45480=T pbc="F F F"
N       -0.04790000       1.26700000      -0.46180000
C       -0.01410000       0.07090000      -0.06020000
O        1.12690000      -0.62520000       0.24950000
C        0.79670000      -1.92830000       0.77490000
O        0.80060000      -1.88800000       2.16920000
C       -0.44170000      -1.29910000       2.58800000
C       -1.41380000      -1.53060000       1.43560000
C       -0.65190000      -2.20830000       0.34000000
C       -1.19170000      -0.82810000       0.09410000
H        0.89670000       1.65170000      -0.51710000
H        1.56730000      -2.62120000       0.44160000
H       -0.76460000      -1.81030000       3.49920000
H       -0.29690000      -0.23590000       2.81490000
H       -2.43480000      -1.81030000       1.66410000
H       -0.93910000      -3.10990000      -0.18270000
H       -2.05670000      -0.62670000      -0.52270000
