25
Properties=species:S:1:pos:R:3 gdb_95205=T pbc="F F F"
C        0.02020000       1.57580000      -0.07850000
C        0.07800000       0.04460000      -0.04050000
C        0.66270000      -0.54300000      -1.33480000
C        0.38780000      -2.05110000      -1.41940000
C        0.80100000      -2.79700000      -0.16240000
C        2.19000000      -2.63310000       0.39370000
C        1.00950000      -2.03380000       1.13010000
C        0.79400000      -0.51370000       1.22070000
C        2.09750000       0.21880000       1.58450000
H        1.00920000       2.01820000      -0.23790000
H       -0.62510000       1.91420000      -0.89620000
H       -0.38190000       1.98710000       0.85410000
H       -0.95960000      -0.31640000       0.01730000
H        0.21650000      -0.04460000      -2.20330000
H        1.74000000      -0.33700000      -1.39240000
H       -0.69030000      -2.19400000      -1.57340000
H        0.88430000      -2.48520000      -2.29660000
H        0.36690000      -3.78890000      -0.06900000
H        2.68010000      -3.49740000       0.82910000
H        2.86870000      -1.96300000      -0.12350000
H        0.73340000      -2.56580000       2.03620000
H        0.10370000      -0.34920000       2.05820000
H        2.82040000       0.20850000       0.76210000
H        1.91380000       1.26320000       1.85170000
H        2.57500000      -0.26550000       2.44210000
