19
Properties=species:S:1:pos:R:3 gdb_86013=T pbc="F F F"
C        0.30380000       1.31430000      -0.07590000
C       -0.07160000      -0.18800000      -0.03280000
C        0.53810000      -0.98780000      -1.23410000
C        1.77750000      -1.73950000      -0.68250000
O        3.03150000      -1.15410000      -1.03860000
C        1.55270000      -1.71800000       0.81040000
C        0.58640000      -0.87340000       1.16130000
C       -1.52880000      -0.31710000       0.02490000
C       -2.72660000      -0.41040000       0.07880000
H        1.38770000       1.43100000      -0.17240000
H       -0.17570000       1.80300000      -0.92860000
H       -0.01830000       1.82610000       0.83550000
H       -0.19840000      -1.70770000      -1.59750000
H        0.81480000      -0.34020000      -2.06920000
H        1.83370000      -2.75360000      -1.09050000
H        3.13900000      -0.35670000      -0.50880000
H        2.17730000      -2.28240000       1.49380000
H        0.27350000      -0.64400000       2.17410000
H       -3.78360000      -0.50100000       0.12350000
