19
Properties=species:S:1:pos:R:3 gdb_76313=T pbc="F F F"
C       -0.04510000       1.60170000      -0.09690000
C        0.10110000       0.09240000      -0.01010000
C        1.12610000      -0.64920000      -0.91070000
O        2.33160000       0.05770000      -1.16500000
C        1.32610000      -1.67910000       0.23620000
O        2.59670000      -2.21130000       0.39540000
C        0.77150000      -0.58540000       1.24850000
C        1.81690000       0.20800000       1.86220000
C        2.70570000       0.87390000       2.32970000
H        0.90750000       2.11600000       0.05410000
H       -0.43290000       1.89370000      -1.07810000
H       -0.74020000       1.96880000       0.66500000
H       -0.87520000      -0.38240000      -0.15380000
H        0.78420000      -1.02000000      -1.87970000
H        2.54570000       0.59360000      -0.38940000
H        0.60540000      -2.50060000       0.18010000
H        3.20020000      -1.58430000      -0.02850000
H        0.08170000      -0.95740000       2.01080000
H        3.47870000       1.44760000       2.77870000
