19
Properties=species:S:1:pos:R:3 gdb_35781=T pbc="F F F"
N        0.04270000      -1.17310000       0.07960000
C        0.03640000      -0.01890000       0.03020000
C        0.00850000       1.45010000       0.01340000
C       -0.76330000       1.99270000       1.24360000
C       -0.58480000       3.50190000       1.40010000
C        0.63900000       4.04150000       2.10480000
C        0.50020000       4.22030000       0.61850000
C        1.36250000       3.42030000      -0.34820000
N        1.36880000       1.97270000      -0.12350000
H       -0.52950000       1.75370000      -0.89510000
H       -1.82390000       1.74560000       1.13440000
H       -0.41330000       1.46600000       2.13870000
H       -1.50590000       4.05190000       1.56120000
H        0.53120000       4.91100000       2.74340000
H        1.36090000       3.31420000       2.46770000
H        0.26360000       5.22290000       0.27350000
H        0.99960000       3.58950000      -1.37120000
H        2.40100000       3.76770000      -0.32170000
H        1.91550000       1.73290000       0.69820000
