13
Properties=species:S:1:pos:R:3 gdb_9155=T pbc="F F F"
C       -0.05990000       1.51930000       0.09740000
C        0.03350000       0.00310000      -0.05190000
C        0.75550000      -0.42870000      -1.31150000
O        1.21920000       0.33210000      -2.13000000
C        0.87210000      -1.87390000      -1.50210000
C        0.97490000      -3.06770000      -1.67050000
C        1.08820000      -4.41520000      -1.85610000
N        1.18180000      -5.56270000      -2.00930000
H        0.93440000       1.97140000       0.12960000
H       -0.59500000       1.96330000      -0.74550000
H       -0.58840000       1.77650000       1.01880000
H        0.55270000      -0.45890000       0.79940000
H       -0.95970000      -0.46700000      -0.06470000
