18
Properties=species:S:1:pos:R:3 gdb_33855=T pbc="F F F"
C        0.03690000      -1.14730000       0.01280000
C        0.01620000       0.05490000      -0.01310000
C       -0.05780000       1.49000000      -0.04220000
C        0.41870000       2.24240000      -1.24350000
N        1.22070000       2.26930000      -0.02330000
C        1.03560000       3.39300000       0.89170000
C        0.06110000       4.51420000       0.62010000
C       -0.34500000       3.36180000       1.50610000
C       -1.08080000       2.17130000       0.88910000
H        0.07200000      -2.20820000       0.03490000
H        0.86900000       1.69020000      -2.06340000
H       -0.13800000       3.12250000      -1.54990000
H        1.91970000       3.60540000       1.48130000
H        0.27300000       5.45970000       1.10860000
H       -0.39580000       4.62890000      -0.35590000
H       -0.49710000       3.55330000       2.56220000
H       -1.99130000       2.45640000       0.35180000
H       -1.37360000       1.46750000       1.67160000
