14
Properties=species:S:1:pos:R:3 gdb_130688=T pbc="F F F"
O       -0.08090000      -0.03610000       0.40520000
C       -0.06730000       1.15390000       0.17250000
N       -1.13730000       2.05210000       0.09080000
C       -0.64110000       3.29940000      -0.18810000
N        0.64950000       3.29940000      -0.29430000
N        1.00860000       1.98850000      -0.07090000
C        2.38870000       1.55350000      -0.13630000
C        2.94280000       1.55610000      -1.48890000
C        3.41360000       1.55540000      -2.59320000
H       -2.09580000       1.78010000       0.22140000
H       -1.25720000       4.17720000      -0.30150000
H        2.99200000       2.19100000       0.51930000
H        2.39390000       0.53920000       0.27690000
H        3.82590000       1.55450000      -3.57190000
