19
Properties=species:S:1:pos:R:3 gdb_49291=T pbc="F F F"
O       -0.16150000      -0.03220000      -0.06140000
C       -0.06220000       1.17410000      -0.05630000
C        1.21310000       1.92130000       0.02330000
C        1.10700000       3.26090000       0.02240000
C        2.17240000       4.31560000       0.06960000
C        3.61430000       3.84050000      -0.18020000
C        4.09440000       2.84400000       0.84550000
C        3.57700000       1.62400000       0.97140000
C        2.46990000       1.07890000       0.09920000
H       -0.96570000       1.82270000      -0.11240000
H        0.09140000       3.65890000      -0.01790000
H        1.91010000       5.09170000      -0.66310000
H        2.11330000       4.81720000       1.04750000
H        3.66620000       3.39880000      -1.18470000
H        4.27130000       4.71540000      -0.19530000
H        4.89280000       3.15660000       1.51360000
H        3.96770000       0.95430000       1.73310000
H        2.16440000       0.08680000       0.44080000
H        2.84930000       0.91900000      -0.92240000
