19
Properties=species:S:1:pos:R:3 gdb_72459=T pbc="F F F"
C       -0.02860000       1.49640000       0.08370000
C        0.01040000      -0.01350000      -0.02980000
C        0.67310000      -0.53290000      -1.32330000
C        0.36580000      -1.99590000      -1.52360000
C       -0.44700000      -2.64840000      -0.69480000
C       -1.07180000      -1.88990000       0.45300000
C       -0.05960000      -1.66340000       1.59220000
O        0.71180000      -0.57090000       1.09750000
O       -1.30420000      -0.53230000       0.06050000
H        0.98630000       1.90100000       0.04700000
H       -0.60920000       1.92460000      -0.73740000
H       -0.48860000       1.77920000       1.03280000
H        0.33250000       0.05270000      -2.18810000
H        1.75560000      -0.37570000      -1.24450000
H        0.82560000      -2.49750000      -2.37080000
H       -0.66150000      -3.70660000      -0.80460000
H       -2.02050000      -2.31690000       0.78270000
H       -0.56700000      -1.38620000       2.52630000
H        0.59500000      -2.52110000       1.77330000
