20
Properties=species:S:1:pos:R:3 gdb_75834=T pbc="F F F"
C       -0.22920000       1.52170000      -0.00530000
C        0.02920000       0.01420000       0.02250000
C        0.86490000      -0.44150000      -1.19140000
O        0.74770000      -0.05470000      -2.33300000
N        1.78550000      -1.36030000      -0.74180000
C        1.87390000      -1.42700000       0.68870000
C        2.23050000      -0.14190000       1.40400000
C        0.77550000      -0.54480000       1.23350000
C       -0.02680000      -0.93440000       2.45260000
H        0.69650000       2.08540000       0.14740000
H       -0.63920000       1.80450000      -0.97810000
H       -0.93770000       1.81550000       0.77470000
H       -0.93750000      -0.50340000      -0.05550000
H        2.55560000      -1.60940000      -1.34460000
H        2.10440000      -2.39610000       1.11740000
H        2.63880000      -0.21390000       2.40690000
H        2.64210000       0.66450000       0.80520000
H       -0.47690000      -0.05480000       2.92680000
H       -0.83810000      -1.62260000       2.18870000
H        0.59990000      -1.42730000       3.20260000
