25
Properties=species:S:1:pos:R:3 gdb_122572=T pbc="F F F"
C       -0.05250000       1.58340000      -0.05040000
C        0.03300000       0.05480000      -0.03780000
C        0.69220000      -0.50350000       1.22820000
C        0.78060000      -2.03390000       1.24510000
C        1.46190000      -2.61010000       2.48940000
C        0.72080000      -2.34030000       3.83080000
C        0.99180000      -3.58680000       4.63940000
C        1.49720000      -4.56670000       3.89260000
C        1.65450000      -4.15250000       2.44950000
H        0.94340000       2.03630000       0.01140000
H       -0.52850000       1.95100000      -0.96500000
H       -0.63540000       1.95440000       0.80010000
H       -0.97510000      -0.36950000      -0.13730000
H        0.59260000      -0.28860000      -0.91820000
H        1.70240000      -0.08100000       1.32690000
H        0.13330000      -0.15630000       2.10770000
H       -0.23030000      -2.45890000       1.16220000
H        1.32390000      -2.37030000       0.35110000
H        2.45990000      -2.16020000       2.57400000
H        1.06600000      -1.42490000       4.32460000
H       -0.36110000      -2.21110000       3.67170000
H        0.75610000      -3.66150000       5.69560000
H        1.73710000      -5.56400000       4.24550000
H        0.88880000      -4.63560000       1.82310000
H        2.62190000      -4.43830000       2.02010000
