19
Properties=species:S:1:pos:R:3 gdb_111266=T pbc="F F F"
C        0.47160000       1.10320000       0.57200000
N       -0.34940000       0.33490000      -0.35700000
C        0.38650000      -0.29310000      -1.41580000
C        1.21780000      -1.58460000      -1.16860000
N        0.23590000      -2.56330000      -0.67880000
C        0.41560000      -2.37900000      -2.16610000
C        0.75650000      -3.51310000      -3.07910000
C       -0.40770000      -1.14320000      -2.46980000
O       -1.21130000      -0.87280000      -3.31230000
H        1.27210000       0.52380000       1.06410000
H        0.94370000       1.93520000       0.03710000
H       -0.16600000       1.52890000       1.35200000
H       -0.87020000      -0.37970000       0.14170000
H        0.97230000       0.46010000      -1.95850000
H        2.27600000      -1.68080000      -0.95900000
H        0.73110000      -3.42470000      -0.44580000
H        1.56980000      -4.12150000      -2.66910000
H       -0.11040000      -4.16410000      -3.23400000
H        1.07000000      -3.13970000      -4.05880000
