14
Properties=species:S:1:pos:R:3 gdb_133084=T pbc="F F F"
C       -0.01060000       1.41170000       0.00840000
O       -0.02780000      -0.02120000       0.00500000
C       -1.21710000      -0.62310000       0.01230000
C       -1.24880000      -2.02690000       0.00880000
C       -2.50350000      -2.59780000       0.01660000
N       -3.64240000      -1.88090000       0.02690000
C       -3.45790000      -0.58000000       0.02900000
F       -4.55270000       0.15790000       0.03890000
N       -2.32650000       0.10900000       0.02240000
H        1.04450000       1.68540000       0.00080000
H       -0.51630000       1.80900000      -0.87500000
H       -0.50220000       1.80460000       0.90180000
H       -0.33670000      -2.60720000       0.00050000
H       -2.62210000      -3.67790000       0.01460000
