25
Properties=species:S:1:pos:R:3 gdb_59176=T pbc="F F F"
C       -0.09600000       1.84390000      -0.14340000
C       -0.11290000       0.42170000       0.43890000
C        0.37470000       0.42930000       1.89670000
C       -1.51720000      -0.17660000       0.34480000
C       -2.20070000      -0.49860000      -1.02240000
C       -1.30570000      -1.76420000      -1.13290000
C       -1.79210000      -1.72840000       0.35230000
C       -1.48380000      -2.72710000       1.43800000
C       -3.20050000      -1.37760000      -0.22220000
H        0.90170000       2.28940000      -0.06730000
H       -0.38740000       1.84940000      -1.19840000
H       -0.79210000       2.49650000       0.39750000
H        0.59060000      -0.18460000      -0.14400000
H       -0.28680000       1.03670000       2.52640000
H        0.40190000      -0.57880000       2.32140000
H        1.38210000       0.85210000       1.97250000
H       -2.17850000       0.37390000       1.02970000
H       -2.44460000       0.20590000      -1.81880000
H       -1.70000000      -2.58160000      -1.74460000
H       -0.24020000      -1.62380000      -1.32380000
H       -0.40580000      -2.80560000       1.61710000
H       -1.96150000      -2.44490000       2.38290000
H       -1.84720000      -3.72440000       1.16500000
H       -3.88910000      -0.85660000       0.45020000
H       -3.70740000      -2.17070000      -0.78010000
