14
Properties=species:S:1:pos:R:3 gdb_29223=T pbc="F F F"
N        0.07940000       1.43390000      -0.14140000
C        0.03700000       0.03770000      -0.01940000
C       -1.09060000      -0.68780000       0.15740000
O       -1.12650000      -2.03650000       0.18660000
C        0.02480000      -2.82390000       0.04530000
O       -0.10480000      -4.02030000       0.08420000
C        1.24540000      -2.07670000      -0.12710000
C        1.25750000      -0.71780000      -0.15950000
O        2.37180000       0.03300000      -0.30610000
H       -0.69830000       1.90310000       0.30240000
H        0.95830000       1.82350000       0.17180000
H       -2.07430000      -0.25070000       0.28170000
H        2.15410000      -2.65910000      -0.22650000
H        3.14240000      -0.54190000      -0.37940000
