17
Properties=species:S:1:pos:R:3 gdb_33826=T pbc="F F F"
C        0.04180000      -1.19140000      -0.05780000
C        0.03420000       0.01150000      -0.01130000
C        0.00690000       1.43070000       0.06520000
C        0.27120000       2.33620000      -1.11440000
C        1.20160000       2.43010000       0.06030000
C        0.53470000       3.18590000       1.18040000
C        1.14720000       3.88040000       2.30920000
O        0.47310000       4.60010000       1.26430000
C       -0.68540000       2.24550000       1.18240000
H        0.05060000      -2.25190000      -0.10410000
H        0.68230000       1.84240000      -1.98780000
H       -0.42000000       3.14630000      -1.33210000
H        2.25810000       2.20670000      -0.02140000
H        0.64810000       3.88280000       3.27770000
H        2.22800000       4.01510000       2.34400000
H       -1.64440000       2.69590000       0.91090000
H       -0.79320000       1.68940000       2.11560000
