17
Properties=species:S:1:pos:R:3 gdb_123787=T pbc="F F F"
C       -0.37330000       1.05270000      -0.31730000
C        1.04400000       1.13260000       0.19020000
C        0.36220000      -0.20300000       0.06510000
N       -0.00770000      -0.86330000       1.28610000
C       -1.06420000      -1.73280000       1.33210000
C       -1.44370000      -2.68150000       2.24860000
C       -2.65810000      -3.16680000       1.71000000
N       -2.99770000      -2.59160000       0.58310000
O       -1.95780000      -1.66080000       0.33810000
H       -1.16450000       1.37790000       0.34670000
H       -0.56260000       1.22140000      -1.37070000
H        1.84010000       1.36060000      -0.50890000
H        1.19440000       1.51880000       1.19210000
H        0.67890000      -0.85330000      -0.74900000
H        0.75590000      -1.11550000       1.89560000
H       -0.93920000      -2.97440000       3.15310000
H       -3.30830000      -3.93170000       2.11320000
