15
Properties=species:S:1:pos:R:3 gdb_133691=T pbc="F F F"
C       -0.22520000       1.80660000      -0.05790000
C        0.07780000       0.31680000      -0.01170000
O        0.88410000       0.05800000       1.12620000
C        1.75240000      -0.98220000       1.06350000
N        2.41180000      -1.29950000       2.08730000
C       -1.20300000      -0.52240000       0.08290000
F       -1.94820000      -0.35150000      -1.02060000
F       -0.91160000      -1.82800000       0.18010000
F       -1.94430000      -0.18850000       1.13990000
H        0.70610000       2.36600000      -0.16490000
H       -0.87860000       2.03540000      -0.90260000
H       -0.71710000       2.11650000       0.86650000
H        0.58800000      -0.00580000      -0.92920000
H        1.80370000      -1.45080000       0.07270000
H        3.03510000      -2.07560000       1.87540000
