16
Properties=species:S:1:pos:R:3 gdb_14945=T pbc="F F F"
O       -0.89850000       1.10490000       0.10530000
C        0.23490000       0.73880000      -0.05290000
C        1.44350000       1.67310000       0.02780000
O        2.58670000       0.87300000      -0.18380000
C        3.75660000       1.62990000      -0.46380000
C        3.61190000       2.40500000      -1.77460000
C        2.28580000       3.11860000      -1.80320000
C        1.30490000       2.80290000      -0.96220000
H        0.50620000      -0.31620000      -0.27330000
H        1.44260000       2.08730000       1.05520000
H        3.95960000       2.32910000       0.36300000
H        4.57800000       0.91020000      -0.50770000
H        4.43680000       3.12200000      -1.87110000
H        3.69540000       1.72260000      -2.63130000
H        2.14860000       3.91520000      -2.52930000
H        0.35120000       3.32040000      -0.95080000
