16
Properties=species:S:1:pos:R:3 gdb_14246=T pbc="F F F"
C        0.40630000       1.54210000       0.08010000
C        0.11260000       0.05130000       0.01610000
C        0.94280000      -0.84700000      -0.96120000
C        1.30520000      -1.80100000       0.22590000
C        0.57220000      -0.84050000       1.19410000
O        1.86100000      -0.43060000       1.75710000
C        2.55040000      -1.32710000       0.96380000
O        3.72020000      -1.53420000       0.95990000
H        1.46050000       1.72500000       0.30520000
H        0.17170000       2.02270000      -0.87520000
H       -0.19180000       2.02980000       0.85710000
H       -0.95710000      -0.11680000      -0.14970000
H        0.34500000      -1.32970000      -1.73570000
H        1.80280000      -0.36840000      -1.43510000
H        1.13780000      -2.87060000       0.12540000
H       -0.11970000      -1.12720000       1.98480000
