21
Properties=species:S:1:pos:R:3 gdb_102660=T pbc="F F F"
C        0.11920000       1.43550000      -0.30900000
O        0.06970000       0.04150000      -0.08080000
C        0.63070000      -0.75980000      -1.12750000
C        2.14660000      -0.86430000      -0.91240000
O        2.44530000      -1.35530000       0.37870000
C       -0.06100000      -2.12310000      -1.06920000
C       -1.55780000      -2.02920000      -1.24490000
C       -2.20100000      -2.19400000      -2.55590000
O       -2.23560000      -3.24100000      -1.58540000
H        1.14720000       1.81470000      -0.39450000
H       -0.42790000       1.71070000      -1.22260000
H       -0.35870000       1.91720000       0.54750000
H        0.43200000      -0.28380000      -2.10120000
H        2.58360000      -1.55940000      -1.63730000
H        2.61160000       0.12040000      -1.08270000
H        1.87200000      -0.86410000       0.98110000
H        0.35280000      -2.77040000      -1.85010000
H        0.17320000      -2.59120000      -0.10740000
H       -2.07430000      -1.42530000      -0.50040000
H       -3.15640000      -1.71230000      -2.76070000
H       -1.58730000      -2.39320000      -3.43450000
