21
Properties=species:S:1:pos:R:3 gdb_72430=T pbc="F F F"
C        0.00390000       1.45840000       0.11130000
C       -0.01350000      -0.04790000      -0.02280000
C        0.67800000      -0.70680000      -1.23740000
C        0.45000000      -2.13180000      -0.66940000
C        1.13030000      -1.94250000       0.68990000
O        0.72140000      -0.61980000       1.08640000
C       -1.08840000      -2.13660000      -0.49850000
C       -1.72420000      -1.83210000       0.84060000
C       -1.41560000      -0.70600000      -0.10560000
H        1.03080000       1.83410000       0.10580000
H       -0.54380000       1.92450000      -0.71350000
H       -0.46600000       1.76340000       1.05100000
H        0.14500000      -0.53170000      -2.17520000
H        1.73040000      -0.42350000      -1.34540000
H        0.84060000      -2.96720000      -1.25130000
H        0.81240000      -2.67110000       1.44350000
H        2.22510000      -1.98390000       0.60770000
H       -1.67520000      -2.67150000      -1.23700000
H       -2.76900000      -2.10920000       0.94210000
H       -1.15490000      -1.90460000       1.75820000
H       -2.22030000      -0.13990000      -0.56340000
