21
Properties=species:S:1:pos:R:3 gdb_123240=T pbc="F F F"
O       -0.04970000       1.43200000      -0.08860000
C        0.02510000       0.01520000      -0.06120000
C       -1.39740000      -0.52600000      -0.00110000
C       -1.44670000      -2.05550000       0.03280000
C       -2.87120000      -2.58770000       0.09270000
O       -2.82570000      -4.00200000       0.12110000
C       -4.09040000      -4.60440000       0.17650000
C       -3.89900000      -6.11100000       0.20110000
O       -4.80580000      -6.89840000       0.24880000
H        0.84560000       1.78060000      -0.12610000
H        0.53340000      -0.37600000      -0.95790000
H        0.59390000      -0.33850000       0.81440000
H       -1.88810000      -0.10820000       0.88660000
H       -1.94820000      -0.14530000      -0.87000000
H       -0.95670000      -2.47320000      -0.85520000
H       -0.89680000      -2.43610000       0.90220000
H       -3.38880000      -2.20710000       0.98970000
H       -3.44920000      -2.24470000      -0.78230000
H       -4.65590000      -4.30530000       1.07610000
H       -4.71600000      -4.34190000      -0.69420000
H       -2.83160000      -6.42290000       0.17050000
