18
Properties=species:S:1:pos:R:3 gdb_38087=T pbc="F F F"
C       -0.08450000       1.57340000      -0.08820000
C        1.47330000       1.55020000       0.03220000
C        2.11180000       1.97350000       1.32470000
C        2.38510000       0.91590000       2.08440000
C        1.89580000      -0.37010000       1.43670000
C        0.61690000      -0.89990000       2.06630000
C       -0.44000000      -0.64700000       1.29860000
C       -0.02090000       0.01570000       0.01690000
N        1.47580000       0.05250000       0.07170000
H       -0.60390000       2.07100000       0.73270000
H       -0.46460000       1.95310000      -1.03890000
H        1.98940000       1.96310000      -0.84340000
H        2.32680000       3.00710000       1.57000000
H        2.85950000       0.93320000       3.05880000
H        2.68380000      -1.13720000       1.41270000
H        0.60250000      -1.38450000       3.03570000
H       -1.47000000      -0.89190000       1.53120000
H       -0.41130000      -0.50220000      -0.86790000
