18
Properties=species:S:1:pos:R:3 gdb_28431=T pbc="F F F"
C       -0.01810000       1.52100000       0.04150000
C        0.01460000       0.01290000      -0.00060000
C       -0.05820000      -0.68800000      -1.20120000
C       -0.02130000      -2.08210000      -1.22660000
C        0.08980000      -2.82510000      -0.05310000
N        0.18810000      -4.21950000      -0.04240000
C        0.15830000      -2.11700000       1.16170000
O        0.25190000      -2.88370000       2.29710000
C        0.12210000      -0.73150000       1.18180000
H        0.91080000       1.93620000       0.45120000
H       -0.15230000       1.93950000      -0.95960000
H       -0.83700000       1.89230000       0.66900000
H       -0.14580000      -0.14300000      -2.13590000
H       -0.07670000      -2.60760000      -2.17580000
H       -0.28150000      -4.67310000      -0.81270000
H       -0.06490000      -4.62990000       0.84530000
H        0.26100000      -2.30500000       3.06550000
H        0.17480000      -0.21790000       2.14040000
