14
Properties=species:S:1:pos:R:3 gdb_128946=T pbc="F F F"
N        1.52510000      -0.38950000       0.50550000
C        0.74140000       0.39640000       0.18690000
C       -0.27590000       1.37560000      -0.23010000
O       -0.23080000       2.57500000       0.51790000
C        0.78470000       3.41950000       0.21420000
C        1.88380000       3.35250000      -0.61640000
C        2.50440000       4.61310000      -0.43750000
N        1.85570000       5.38790000       0.42000000
N        0.79790000       4.63270000       0.80930000
H       -0.16200000       1.57910000      -1.30250000
H       -1.26780000       0.94980000      -0.06020000
H        2.20810000       2.52820000      -1.22780000
H        3.40690000       4.97540000      -0.90750000
H        0.13230000       4.99190000       1.47230000
