20
Properties=species:S:1:pos:R:3 gdb_104594=T pbc="F F F"
C        0.20360000       0.27800000       1.88020000
O       -0.14150000       0.41510000       0.51000000
C       -1.08190000      -0.52930000       0.04100000
C       -2.51300000      -0.30730000       0.50000000
C       -3.19770000       0.96280000      -0.02510000
N       -2.40180000       2.06640000      -0.08500000
O       -4.37800000       0.97430000      -0.31900000
C       -0.81640000      -0.99210000      -1.35920000
C       -0.56890000      -1.92800000      -0.19220000
H        1.00040000       0.99870000       2.07670000
H       -0.64160000       0.49750000       2.54580000
H        0.56980000      -0.73320000       2.09870000
H       -3.13940000      -1.14230000       0.18070000
H       -2.56110000      -0.28660000       1.59640000
H       -1.40470000       1.98510000       0.04800000
H       -2.79460000       2.90430000      -0.48180000
H       -1.66640000      -1.17670000      -2.00660000
H        0.05420000      -0.57490000      -1.85130000
H        0.46510000      -2.12570000       0.06740000
H       -1.24370000      -2.76250000      -0.03670000
