13
Properties=species:S:1:pos:R:3 gdb_3146=T pbc="F F F"
O        0.00510000       0.14220000      -0.64320000
C        0.00290000       1.25140000      -0.19920000
C       -1.07560000       2.19220000       0.38840000
C       -0.02860000       3.35080000       0.37600000
C        1.05990000       2.33750000      -0.01890000
C        2.43230000       2.16220000       0.48700000
O        2.17280000       2.56760000      -0.85460000
H       -1.95590000       2.32180000      -0.24530000
H       -1.40470000       1.88120000       1.38390000
H       -0.21150000       4.08530000      -0.41130000
H        0.12570000       3.87030000       1.32280000
H        2.85110000       2.92770000       1.13890000
H        2.83450000       1.15720000       0.60260000
