15
Properties=species:S:1:pos:R:3 gdb_45169=T pbc="F F F"
O       -0.00300000       0.04830000       0.42480000
C        0.00660000       1.18770000       0.05320000
O       -1.16660000       1.84270000      -0.21360000
C       -1.01050000       3.20310000      -0.63330000
C       -0.15360000       3.24000000      -1.90920000
C        1.21780000       3.05150000      -1.28890000
C        1.06020000       3.51670000       0.12080000
O       -0.27310000       3.91600000       0.33540000
C        1.22210000       2.02530000      -0.14350000
H       -2.01200000       3.62260000      -0.69720000
H       -0.45230000       2.45840000      -2.61010000
H       -0.23040000       4.21610000      -2.39700000
H        2.12430000       3.19460000      -1.86120000
H        1.77920000       4.07600000       0.70270000
H        2.15540000       1.54220000       0.11360000
