15
Properties=species:S:1:pos:R:3 gdb_132420=T pbc="F F F"
C        0.08960000       1.47880000       0.00800000
C       -0.07040000      -0.00410000      -0.01610000
C       -1.22000000      -0.69540000      -0.12710000
C       -1.18020000      -2.13280000      -0.13290000
C        0.00620000      -2.75760000      -0.02680000
F        0.10740000      -4.07960000      -0.02620000
C        1.26110000      -2.02940000       0.09480000
N        2.39340000      -2.58920000       0.19710000
O        1.12890000      -0.64510000       0.09060000
H        0.72980000       1.81270000      -0.81610000
H       -0.88090000       1.97020000      -0.07880000
H        0.56730000       1.80190000       0.93950000
H       -2.16050000      -0.16850000      -0.21070000
H       -2.08890000      -2.71630000      -0.22130000
H        3.13420000      -1.89170000       0.27060000
