18
Properties=species:S:1:pos:R:3 gdb_5570=T pbc="F F F"
C        0.17400000       1.62040000      -0.14660000
C       -0.09430000       0.12490000       0.09690000
C        0.66870000      -0.44170000       1.25900000
C        0.13860000      -0.81160000       2.48200000
N       -1.17090000      -0.80880000       3.02420000
N        1.17170000      -1.26600000       3.26860000
C        2.35190000      -1.19730000       2.57870000
C        2.07330000      -0.68880000       1.33140000
H        1.23630000       1.80090000      -0.33900000
H       -0.39350000       1.99030000      -1.00730000
H       -0.10560000       2.21620000       0.72850000
H       -1.16820000      -0.02500000       0.26520000
H        0.14980000      -0.43210000      -0.81700000
H       -1.78620000      -1.45020000       2.53360000
H       -1.59700000       0.11030000       2.97430000
H        1.03970000      -1.59050000       4.21100000
H        3.28060000      -1.51460000       3.02490000
H        2.79490000      -0.51590000       0.54640000
