16
Properties=species:S:1:pos:R:3 gdb_43759=T pbc="F F F"
N       -0.32370000       1.17730000      -0.16470000
C       -0.15560000      -0.05400000      -0.01800000
O        1.02960000      -0.79800000       0.06960000
C        0.25570000      -2.03160000       0.04040000
C       -0.60080000      -2.10890000       1.24770000
C       -1.04410000      -1.24960000       0.05360000
C        0.75460000      -3.12970000      -0.81780000
C        1.37480000      -4.33310000      -0.24200000
O        0.02670000      -4.35210000      -0.71710000
H        0.56910000       1.67160000      -0.20530000
H       -1.17020000      -3.02670000       1.35180000
H       -0.27880000      -1.63780000       2.17090000
H       -1.97820000      -1.40090000      -0.46610000
H        1.02810000      -2.83420000      -1.83050000
H        2.08620000      -4.90260000      -0.83690000
H        1.48880000      -4.40760000       0.83750000
