17
Properties=species:S:1:pos:R:3 gdb_47100=T pbc="F F F"
O        0.08760000       0.06090000      -0.36840000
C        0.06480000       1.21960000      -0.05850000
C       -1.13440000       1.99960000       0.48080000
O       -0.67840000       3.30940000       0.75460000
C        0.53350000       3.58180000       0.02680000
C        1.48300000       4.34900000       0.93960000
C        2.03410000       3.21730000       1.81250000
O        2.10580000       2.06690000       0.96000000
C        1.22560000       2.22950000      -0.15350000
H       -1.93490000       1.98910000      -0.27650000
H       -1.52930000       1.54690000       1.39650000
H        0.30370000       4.08970000      -0.91800000
H        2.27680000       4.81270000       0.34540000
H        0.96490000       5.12410000       1.50760000
H        3.03930000       3.40850000       2.19790000
H        1.36510000       3.01830000       2.65960000
H        1.78390000       2.10360000      -1.08620000
