19
Properties=species:S:1:pos:R:3 gdb_32591=T pbc="F F F"
C        0.05190000       1.60920000       0.04410000
C       -0.01350000       0.08090000      -0.00840000
N        0.67760000      -0.48050000      -1.15830000
C        2.02470000      -0.83490000      -1.25830000
C        2.21560000      -1.25750000      -2.54240000
C        3.46520000      -1.76250000      -3.18390000
N        1.02370000      -1.16830000      -3.25390000
C        0.16060000      -0.70260000      -2.39180000
O       -1.14110000      -0.43990000      -2.62280000
H        1.08890000       1.95530000       0.08340000
H       -0.42250000       2.04420000      -0.83980000
H       -0.46930000       1.97990000       0.93220000
H        0.43120000      -0.35530000       0.89140000
H       -1.05380000      -0.25260000      -0.05230000
H        2.68570000      -0.76140000      -0.41050000
H        3.33370000      -2.78380000      -3.55870000
H        3.74940000      -1.14160000      -4.04110000
H        4.29660000      -1.76430000      -2.47360000
H       -1.30170000      -0.68940000      -3.54140000
