12
Properties=species:S:1:pos:R:3 gdb_133515=T pbc="F F F"
F        0.09420000       0.09950000      -0.15910000
C       -0.01230000       1.40600000       0.00180000
F        1.21800000       1.94440000       0.01560000
F       -0.67010000       1.92170000      -1.04930000
C       -0.75940000       1.76490000       1.31890000
O       -1.15770000       0.89830000       2.04070000
C       -0.90360000       3.26790000       1.54640000
C       -1.60060000       3.61740000       2.76970000
C       -2.17720000       3.90630000       3.78150000
H        0.10710000       3.69810000       1.52350000
H       -1.40890000       3.68320000       0.66380000
H       -2.68770000       4.16090000       4.67730000
