18
Properties=species:S:1:pos:R:3 gdb_124798=T pbc="F F F"
C        0.01590000       1.41300000       0.95120000
C       -0.21270000       0.41390000      -0.17820000
O        0.82050000      -0.59190000      -0.21180000
C       -1.56520000      -0.24140000      -0.14330000
N       -2.52980000       0.12520000       0.70230000
N       -3.55880000      -0.67860000       0.41430000
C       -3.28730000      -1.56550000      -0.58910000
C       -1.98880000      -1.30970000      -0.98270000
N       -1.23260000      -1.88020000      -2.01380000
H        1.02260000       1.83130000       0.87240000
H       -0.71640000       2.22280000       0.90660000
H       -0.09320000       0.92780000       1.92670000
H       -0.08880000       0.92510000      -1.14150000
H        0.74260000      -1.09730000       0.60610000
H       -4.41280000      -0.58610000       0.93550000
H       -4.01750000      -2.28050000      -0.93250000
H       -1.50790000      -2.82590000      -2.24180000
H       -0.24420000      -1.84210000      -1.79140000
