17
Properties=species:S:1:pos:R:3 gdb_84760=T pbc="F F F"
O        0.69090000      -0.06590000       1.09990000
C       -0.09220000      -0.36040000      -0.05330000
C       -1.51740000       0.12650000       0.12030000
C       -2.46640000       0.06940000      -0.80750000
C       -2.26510000      -0.47940000      -2.19980000
C       -1.24480000       0.30970000      -3.01920000
O       -1.53840000       0.78020000      -4.09920000
C        0.14020000       0.44080000      -2.50540000
C        0.61960000       0.13390000      -1.29380000
H        0.73190000       0.89350000       1.18550000
H       -0.10090000      -1.46240000      -0.08920000
H       -1.73860000       0.50550000       1.11420000
H       -3.45980000       0.43900000      -0.57140000
H       -1.90810000      -1.51850000      -2.14230000
H       -3.19690000      -0.48220000      -2.76680000
H        0.82430000       0.82730000      -3.25650000
H        1.68860000       0.25270000      -1.12340000
