22
Properties=species:S:1:pos:R:3 gdb_82309=T pbc="F F F"
C       -0.85410000       1.10980000       0.01290000
C        0.04520000      -0.11330000      -0.11690000
N        0.89020000      -0.05810000      -1.32460000
C        2.05330000       0.83860000      -1.24140000
C        2.20790000      -0.61410000      -0.97010000
C        2.21480000      -1.08280000       0.47380000
C        0.93520000      -0.47560000       1.12410000
C        1.25010000       0.67320000       2.08890000
O        0.18570000      -1.46580000       1.83720000
H       -0.28140000       2.03310000       0.14610000
H       -1.46040000       1.21940000      -0.89030000
H       -1.52970000       0.99870000       0.86630000
H       -0.59550000      -0.99220000      -0.25160000
H        2.37100000       1.24600000      -2.19710000
H        2.13670000       1.53720000      -0.41460000
H        2.68060000      -1.24890000      -1.71500000
H        2.12580000      -2.17280000       0.50930000
H        3.13040000      -0.80480000       1.00680000
H        1.81370000       1.48310000       1.61930000
H        0.33170000       1.09100000       2.50850000
H        1.86350000       0.29970000       2.91910000
H        0.63180000      -1.63260000       2.67430000
