14
Properties=species:S:1:pos:R:3 gdb_21290=T pbc="F F F"
C       -0.03200000       1.34350000      -0.02530000
O       -0.02700000      -0.08020000      -0.06350000
C       -1.24010000      -0.66950000      -0.02330000
N       -2.39620000      -0.02840000       0.04590000
N       -3.31390000      -1.02270000       0.06200000
C       -2.76200000      -2.26770000       0.00420000
C       -1.40100000      -2.07540000      -0.05220000
O       -0.42530000      -3.02120000      -0.12050000
H        1.01360000       1.65170000      -0.06570000
H       -0.58100000       1.75480000      -0.87900000
H       -0.49840000       1.70740000       0.89630000
H       -4.28670000      -0.78290000       0.11200000
H       -3.35450000      -3.16730000       0.00790000
H        0.41900000      -2.55750000      -0.14890000
