22
Properties=species:S:1:pos:R:3 gdb_109893=T pbc="F F F"
C       -0.10130000       1.53720000      -0.09690000
C        0.04170000       0.01680000      -0.13350000
N        0.71360000      -0.50010000       1.04570000
C        2.18700000      -0.27450000       1.17630000
C        2.62490000       0.74310000       2.21470000
C        2.36960000      -1.77710000       1.50190000
O        2.10900000      -2.13260000       2.87430000
C        0.73040000      -2.48190000       2.57480000
C        0.88260000      -1.96790000       1.13470000
H        0.87620000       2.02960000      -0.11070000
H       -0.66080000       1.89030000      -0.96870000
H       -0.62660000       1.85150000       0.80950000
H       -0.95380000      -0.44260000      -0.17310000
H        0.56120000      -0.27760000      -1.06860000
H        2.64300000      -0.05720000       0.19490000
H        2.25940000       0.44740000       3.20050000
H        3.71830000       0.80490000       2.25350000
H        2.23720000       1.73870000       1.98060000
H        3.23010000      -2.30660000       1.08750000
H        0.57290000      -3.56430000       2.67040000
H        0.01390000      -1.93580000       3.19660000
H        0.49770000      -2.55780000       0.30010000
