17
Properties=species:S:1:pos:R:3 gdb_55349=T pbc="F F F"
O       -1.04640000      -0.15160000      -0.13650000
C       -0.36570000       1.01190000      -0.23010000
O        0.78870000       1.09210000      -0.54430000
C       -1.32430000       2.15860000       0.10610000
C       -1.76430000       3.00080000      -1.11100000
C       -2.96360000       2.02330000      -1.21690000
N       -2.65970000       1.52230000       0.16120000
C       -2.44010000       0.11070000       0.35280000
N       -3.39900000      -0.71480000      -0.27340000
H       -3.33810000      -0.66440000      -1.28420000
H       -3.28180000      -1.68170000       0.00320000
H       -0.99110000       2.68220000       1.00740000
H       -2.05880000       4.01340000      -0.83350000
H       -1.06930000       3.03780000      -1.94960000
H       -3.96280000       2.45310000      -1.30840000
H       -2.82320000       1.28050000      -2.01200000
H       -2.40650000      -0.12170000       1.42230000
