15
Properties=species:S:1:pos:R:3 gdb_2225=T pbc="F F F"
O       -0.24070000       1.44190000      -0.02870000
C       -0.17120000       0.04380000       0.00930000
C       -0.49100000      -0.77580000       1.23910000
C       -1.58760000      -0.08210000       2.05680000
C       -2.53270000      -0.11070000       0.81330000
C       -1.41430000      -0.77770000       0.00430000
O       -1.62080000      -1.80680000      -0.89880000
H        0.48290000       1.79100000       0.50250000
H        0.62110000      -0.39280000      -0.60120000
H        0.19080000      -1.53640000       1.60160000
H       -1.95630000      -0.69460000       2.88140000
H       -1.33360000       0.91110000       2.43650000
H       -3.37390000      -0.79230000       0.95450000
H       -2.89550000       0.85040000       0.44040000
H       -1.70000000      -1.42470000      -1.78010000
