15
Properties=species:S:1:pos:R:3 gdb_18387=T pbc="F F F"
C        0.03710000       1.51100000      -0.03760000
O        1.40360000       1.88960000      -0.26100000
C        2.34080000       1.61760000       0.69000000
N        2.33800000       0.94150000       1.75500000
C        1.20660000       0.16770000       2.26190000
C        0.47630000      -0.66210000       1.21270000
O       -0.94350000      -0.49110000       1.09990000
C       -0.11370000       0.00910000       0.04940000
H       -0.34280000       1.97580000       0.87670000
H       -0.50920000       1.92720000      -0.88670000
H        3.25950000       2.12420000       0.39270000
H        1.59890000      -0.49890000       3.03640000
H        0.48360000       0.82110000       2.76280000
H        0.80620000      -1.69340000       1.09580000
H       -0.19240000      -0.52990000      -0.89360000
