18
Properties=species:S:1:pos:R:3 gdb_16068=T pbc="F F F"
C        0.05660000       1.55590000      -0.13890000
C        0.02560000       0.04150000       0.11360000
C       -1.36340000      -0.52870000       0.05580000
C       -2.45190000      -0.35210000       1.11200000
O       -2.97330000      -1.69380000       0.87000000
C       -1.90230000      -1.95560000      -0.05030000
C       -2.04990000      -1.02820000      -1.21020000
O       -3.30440000      -0.59910000      -1.63550000
H        1.07990000       1.94080000      -0.09450000
H       -0.35640000       1.79760000      -1.12320000
H       -0.53420000       2.09500000       0.60950000
H        0.65250000      -0.46690000      -0.62940000
H        0.47480000      -0.17930000       1.09140000
H       -2.06500000      -0.27900000       2.13460000
H       -3.20660000       0.42260000       0.93780000
H       -1.45000000      -2.94160000      -0.02930000
H       -1.36750000      -1.19530000      -2.04030000
H       -3.93880000      -0.98490000      -1.01560000
