21
Properties=species:S:1:pos:R:3 gdb_95555=T pbc="F F F"
C        0.26750000       1.56040000       0.00960000
C        0.06830000       0.07080000      -0.06000000
C       -0.00760000      -0.56500000      -1.24160000
C       -0.19310000      -1.98860000      -1.50610000
C       -0.01770000      -3.05650000      -0.71120000
C        0.48010000      -3.13180000       0.70400000
C        0.97850000      -1.83580000       1.34700000
C       -0.03730000      -0.68310000       1.25890000
O        0.19600000       0.14800000       2.39360000
H        1.15050000       1.81470000       0.60590000
H        0.38210000       1.98670000      -0.98970000
H       -0.58250000       2.06850000       0.48780000
H        0.04180000       0.05160000      -2.13730000
H       -0.52240000      -2.20150000      -2.52190000
H       -0.24950000      -4.02800000      -1.14530000
H       -0.31630000      -3.56870000       1.32560000
H        1.29290000      -3.87140000       0.74090000
H        1.17710000      -2.01730000       2.40770000
H        1.92170000      -1.52000000       0.89050000
H       -1.04890000      -1.12090000       1.32460000
H       -0.48770000       0.82390000       2.42100000
