16
Properties=species:S:1:pos:R:3 gdb_25582=T pbc="F F F"
O        0.97720000       1.21270000       1.51650000
C        0.44450000       1.47810000       0.45080000
N        1.06220000       1.44020000      -0.74900000
C        2.47170000       1.04670000      -0.89130000
C        3.45220000       2.06430000      -0.41130000
C        4.42640000       2.79940000      -1.04070000
N        5.09720000       3.59360000      -0.14180000
C        4.53390000       3.34370000       1.02120000
N        3.54040000       2.42230000       0.91770000
H       -0.61930000       1.77050000       0.37440000
H        0.56060000       1.76470000      -1.56000000
H        2.59770000       0.10390000      -0.34680000
H        2.65180000       0.84420000      -1.94880000
H        4.68510000       2.79280000      -2.08970000
H        4.80280000       3.79880000       1.96280000
H        2.90580000       2.07480000       1.62580000
