20
Properties=species:S:1:pos:R:3 gdb_108125=T pbc="F F F"
C       -0.00420000       1.41350000       0.01590000
O       -0.00850000      -0.00230000       0.04080000
C       -1.27340000      -0.55710000       0.07460000
C       -2.22740000      -0.57240000       1.26970000
N       -2.90060000      -1.73730000       0.57070000
C       -3.48590000      -1.00980000      -0.60740000
C       -2.17110000      -0.58200000      -1.26960000
C       -1.55760000      -1.97660000      -1.56720000
C       -1.50400000      -2.08080000      -0.04390000
H        1.04060000       1.73020000      -0.00810000
H       -0.51720000       1.80680000      -0.87300000
H       -0.48330000       1.83660000       0.91030000
H       -1.72810000      -0.91770000       2.17960000
H       -2.88700000       0.27010000       1.49880000
H       -4.08390000      -1.68440000      -1.22710000
H       -4.12670000      -0.19420000      -0.26370000
H       -2.16020000       0.22470000      -2.00140000
H       -2.15020000      -2.69020000      -2.14680000
H       -0.54260000      -1.91140000      -1.96600000
H       -0.96880000      -2.83860000       0.52480000
