14
Properties=species:S:1:pos:R:3 gdb_4970=T pbc="F F F"
C       -0.03770000       1.54830000      -0.02470000
C       -0.00430000       0.04760000      -0.02090000
C       -0.09680000      -0.73110000      -1.16380000
N       -0.06750000      -2.07320000      -1.16900000
C        0.05930000      -2.64230000       0.02240000
N        0.15850000      -2.01890000       1.20080000
C        0.12590000      -0.69360000       1.16550000
O        0.22310000      -0.03300000       2.33210000
H        0.87740000       1.96680000       0.40760000
H       -0.14420000       1.93150000      -1.04290000
H       -0.87110000       1.92830000       0.57590000
H       -0.20040000      -0.24870000      -2.13440000
H        0.08600000      -3.72880000       0.05140000
H        0.30410000      -0.70970000       3.02000000
