18
Properties=species:S:1:pos:R:3 gdb_37170=T pbc="F F F"
C        0.02700000       1.55320000       0.11680000
C        1.34920000       0.84520000      -0.09630000
C        0.04320000       0.04430000       0.05470000
C        0.10680000      -0.58810000      -1.32840000
C       -0.66900000      -1.17540000      -2.50380000
O        0.15270000      -0.37330000      -3.40790000
C        0.56600000       0.49540000      -2.32220000
C        1.86150000       0.33950000      -1.50590000
N        1.54660000      -1.11840000      -1.43150000
H       -0.10650000       1.97910000       1.10770000
H       -0.45210000       2.13670000      -0.65880000
H        2.08400000       0.87880000       0.70070000
H       -0.17280000      -0.54600000       0.93830000
H       -0.55070000      -2.24670000      -2.68270000
H       -1.72450000      -0.88080000      -2.56550000
H        0.13210000       1.48620000      -2.44150000
H        2.86680000       0.64780000      -1.80110000
H        1.84610000      -1.51150000      -0.53820000
