18
Properties=species:S:1:pos:R:3 gdb_46571=T pbc="F F F"
O       -0.17200000      -0.09480000      -0.17440000
C       -0.03540000       1.09730000      -0.01930000
N       -1.07980000       2.01280000       0.04660000
C       -0.74370000       3.41510000       0.34580000
C        0.69070000       3.20600000       0.79210000
C        2.14030000       3.76770000       0.77400000
C        2.25600000       2.24220000       1.17080000
C        1.06270000       2.47980000       2.12620000
C        1.21860000       1.97270000       0.03450000
H       -2.02940000       1.68460000      -0.03560000
H       -0.82860000       4.05360000      -0.54430000
H       -1.39760000       3.81990000       1.12610000
H        2.54400000       4.05250000      -0.20110000
H        2.41070000       4.48820000       1.55040000
H        3.17580000       1.69630000       1.37920000
H        1.24500000       3.12500000       2.98950000
H        0.47060000       1.60420000       2.39960000
H        1.58610000       2.15050000      -0.98290000
