19
Properties=species:S:1:pos:R:3 gdb_26467=T pbc="F F F"
C       -0.18660000       1.56380000       0.04100000
C       -0.05400000       0.04100000      -0.00320000
C       -1.38680000      -0.65320000       0.28070000
C        0.69850000      -0.50580000      -1.29220000
N        1.75670000      -0.97990000      -0.37670000
C        2.93080000      -1.57710000      -0.03540000
N        3.08570000      -1.51900000       1.27610000
C        1.98430000      -0.86630000       1.79820000
C        1.15200000      -0.52940000       0.75920000
H        0.76700000       2.05370000      -0.17560000
H       -0.92870000       1.91230000      -0.68620000
H       -0.51280000       1.89050000       1.03370000
H       -2.15000000      -0.34350000      -0.44210000
H       -1.28740000      -1.74150000       0.23440000
H       -1.74820000      -0.39240000       1.28070000
H        0.19050000      -1.31210000      -1.82760000
H        1.04000000       0.25670000      -1.99700000
H        3.61740000      -2.02450000      -0.73660000
H        1.88690000      -0.69830000       2.85870000
