17
Properties=species:S:1:pos:R:3 gdb_51048=T pbc="F F F"
O       -0.99000000       1.57320000      -0.36230000
C        0.05700000       1.04260000      -0.08880000
C        1.41460000       1.63520000      -0.40080000
C        1.32600000       2.86880000      -1.28240000
C        0.54780000       4.10470000      -0.75670000
O        1.66930000       4.97880000      -0.99900000
C        2.52460000       3.86580000      -1.29390000
C        0.92790000       2.51430000      -2.69920000
O        0.84530000       1.39160000      -3.12550000
H        0.08390000       0.06640000       0.44300000
H        1.89960000       1.86390000       0.55890000
H        2.02250000       0.85510000      -0.87460000
H       -0.34150000       4.40140000      -1.32150000
H        0.29070000       4.04260000       0.30710000
H        3.25620000       3.67220000      -0.49740000
H        3.05800000       3.99030000      -2.24410000
H        0.73710000       3.39730000      -3.35000000
