14
Properties=species:S:1:pos:R:3 gdb_66499=T pbc="F F F"
O       -0.12090000       1.37890000       0.15430000
C        0.02380000       0.02910000       0.01240000
C       -1.04420000      -1.03620000       0.05090000
C       -0.20790000      -0.83440000      -1.20750000
C        0.95390000      -1.82300000      -0.89460000
N        2.08630000      -1.40400000      -0.46750000
C        1.10920000      -0.91850000       0.63600000
C       -0.11630000      -2.07440000       0.71980000
O        0.33170000      -2.98020000      -0.27990000
H        0.61430000       1.81260000      -0.29610000
H       -2.12190000      -0.96170000       0.09410000
H       -0.56980000      -0.53460000      -2.17670000
H        1.70320000      -0.70680000       1.51890000
H       -0.34820000      -2.57070000       1.65660000
