13
Properties=species:S:1:pos:R:3 gdb_73746=T pbc="F F F"
N        0.02260000       1.30730000       0.00690000
C       -0.03180000      -0.03020000       0.00010000
C       -1.11750000      -0.85360000       0.00130000
C       -2.46400000      -0.43380000       0.01050000
N       -3.54700000      -0.02010000       0.01830000
C       -0.65440000      -2.25180000      -0.00850000
O       -1.26710000      -3.27580000      -0.01080000
O        0.73430000      -2.22700000      -0.01550000
C        1.20510000      -0.89300000      -0.01080000
H        0.89780000       1.80080000       0.00500000
H       -0.82540000       1.85120000       0.01410000
H        1.81740000      -0.70980000      -0.90320000
H        1.82660000      -0.71920000       0.87700000
