15
Properties=species:S:1:pos:R:3 gdb_9322=T pbc="F F F"
O        0.00640000       1.41880000       0.00950000
C        0.04200000       0.00290000       0.00170000
C       -1.39990000      -0.48950000       0.01290000
C       -1.48630000      -2.01380000       0.00570000
C       -2.90460000      -2.53290000       0.01650000
O       -3.89950000      -1.85490000       0.02940000
C       -3.01540000      -4.01150000       0.00930000
N       -3.08560000      -5.16560000       0.00340000
H        0.91060000       1.74610000       0.00240000
H        0.56120000      -0.38140000      -0.89230000
H        0.57820000      -0.39090000       0.88140000
H       -1.90820000      -0.09020000       0.89600000
H       -1.92490000      -0.08100000      -0.85610000
H       -0.98700000      -2.44930000      -0.87250000
H       -0.97030000      -2.45840000       0.86950000
