21
Properties=species:S:1:pos:R:3 gdb_40162=T pbc="F F F"
C        0.02320000       1.52100000      -0.02050000
C        1.29230000       0.70200000       0.03150000
C       -0.04450000       0.01750000      -0.03790000
C       -0.58630000      -0.77220000       1.15900000
O       -1.62420000      -1.59210000       0.63510000
C       -1.20110000      -1.97010000      -0.65420000
C       -0.68790000      -3.37650000      -0.84570000
C       -2.05120000      -2.95380000      -1.37620000
C       -0.52810000      -0.75240000      -1.27470000
H       -0.28840000       2.03950000       0.88100000
H       -0.20460000       2.05180000      -0.93980000
H        1.92700000       0.68200000      -0.84880000
H        1.83730000       0.66410000       0.97030000
H        0.20610000      -1.39530000       1.60490000
H       -1.01770000      -0.14340000       1.94310000
H        0.11210000      -3.55240000      -1.55760000
H       -0.67830000      -4.02050000       0.02660000
H       -2.92530000      -3.32400000      -0.85230000
H       -2.17920000      -2.83600000      -2.44720000
H       -1.25360000      -0.15970000      -1.84320000
H        0.28560000      -1.02900000      -1.95090000
