16
Properties=species:S:1:pos:R:3 gdb_36085=T pbc="F F F"
N       -0.04810000      -1.18800000       0.19920000
C       -0.02740000      -0.03390000       0.15680000
C       -0.00450000       1.42680000       0.08200000
C        1.39730000       1.99550000      -0.01560000
C        1.70250000       3.52780000      -0.02800000
C        3.02100000       2.90780000       0.52410000
O        2.18940000       1.91420000       1.21410000
C        3.52000000       2.10430000      -0.69330000
C        2.40530000       1.47670000      -1.06760000
H       -0.58390000       1.74190000      -0.79360000
H       -0.50000000       1.83910000       0.96680000
H        1.72490000       4.05180000      -0.98530000
H        1.14100000       4.07450000       0.73410000
H        3.72170000       3.43700000       1.16640000
H        4.51770000       2.08750000      -1.10520000
H        2.20670000       0.77920000      -1.86750000
