23
Properties=species:S:1:pos:R:3 gdb_74950=T pbc="F F F"
C        0.01730000       1.57410000       0.06880000
C        0.01010000       0.07300000      -0.01440000
C       -0.03020000      -0.59210000      -1.17300000
C       -0.03520000      -2.10550000      -1.23640000
C       -1.45060000      -2.65380000      -0.91690000
C       -1.53390000      -2.58040000       0.63900000
C       -0.10380000      -2.20110000       1.12090000
C        0.78170000      -2.65750000      -0.05410000
C        0.05680000      -0.67880000       1.30080000
H        0.90560000       1.93720000       0.60290000
H        0.00620000       2.03490000      -0.92280000
H       -0.85120000       1.94700000       0.62760000
H       -0.08800000      -0.04350000      -2.11090000
H        0.32700000      -2.44780000      -2.20990000
H       -2.23960000      -2.07840000      -1.40790000
H       -1.53880000      -3.69010000      -1.26220000
H       -2.27320000      -1.84750000       0.97520000
H       -1.83660000      -3.54630000       1.05420000
H        0.14620000      -2.70260000       2.06050000
H        0.84340000      -3.75100000      -0.09990000
H        1.79880000      -2.25670000      -0.01070000
H        1.00460000      -0.45350000       1.81400000
H       -0.73030000      -0.29790000       1.96820000
