17
Properties=species:S:1:pos:R:3 gdb_30042=T pbc="F F F"
C       -0.01860000       1.43320000       0.03660000
N        0.01300000      -0.02530000      -0.02260000
C        0.16500000      -0.68290000      -1.22160000
C        0.21340000      -2.03870000      -1.26570000
C        0.09630000      -2.78540000      -0.06380000
C       -0.06730000      -2.14410000       1.13570000
N       -0.25020000      -2.74960000       2.36120000
C       -0.09930000      -0.68230000       1.19630000
O       -0.20880000      -0.05610000       2.25220000
H        0.07860000       1.83260000      -0.97320000
H       -0.95690000       1.77100000       0.48290000
H        0.79650000       1.80200000       0.66400000
H        0.24180000      -0.05230000      -2.09690000
H        0.33630000      -2.53930000      -2.21710000
H        0.12940000      -3.87030000      -0.09850000
H        0.15500000      -3.66300000       2.48980000
H       -0.11890000      -2.10570000       3.13060000
