16
Properties=species:S:1:pos:R:3 gdb_74050=T pbc="F F F"
C        0.07500000       1.52320000       0.05030000
C       -0.02490000       0.02670000      -0.02000000
C       -0.04600000      -0.65020000      -1.17800000
C       -0.14310000      -2.11230000      -1.25320000
O       -0.16130000      -2.71760000      -2.30120000
C       -0.22430000      -2.88950000       0.07720000
O       -0.30660000      -4.09700000       0.11290000
N       -0.19650000      -2.11660000       1.20670000
C       -0.10100000      -0.67770000       1.30090000
H        0.96640000       1.83220000       0.60980000
H        0.12540000       1.96450000      -0.94670000
H       -0.78860000       1.95110000       0.57390000
H        0.00930000      -0.13450000      -2.13260000
H       -0.25060000      -2.64270000       2.06800000
H        0.78350000      -0.39660000       1.89490000
H       -0.96420000      -0.27810000       1.85730000
