17
Properties=species:S:1:pos:R:3 gdb_76316=T pbc="F F F"
N       -0.08630000       1.53300000      -0.03570000
C       -0.05410000       0.09580000      -0.00360000
C        0.38350000      -0.66710000       1.28990000
O        0.15960000       0.14210000       2.41740000
C       -0.80280000      -1.65550000       1.07990000
O       -1.51140000      -1.99210000       2.24380000
C       -1.44450000      -0.64290000       0.05890000
C       -2.51940000       0.11270000       0.67180000
N       -3.38620000       0.63450000       1.23450000
H       -0.31890000       1.87890000       0.89210000
H        0.82970000       1.90280000      -0.26760000
H        0.49130000      -0.27770000      -0.87410000
H        1.39300000      -1.09790000       1.29870000
H       -0.31490000      -0.41120000       3.05470000
H       -0.50030000      -2.57590000       0.57300000
H       -2.29960000      -1.43570000       2.30890000
H       -1.79700000      -1.06950000      -0.88240000
