19
Properties=species:S:1:pos:R:3 gdb_38848=T pbc="F F F"
C       -0.01080000       1.54440000      -0.03280000
O        1.35740000       1.96470000      -0.01220000
C        2.21360000       0.81340000      -0.10620000
C        1.32580000      -0.26910000      -0.73040000
C        0.03330000       0.01080000       0.05480000
C        0.22540000      -0.39070000       1.51190000
O        1.09240000      -1.49210000       1.78360000
C        1.54570000      -0.17180000       2.12880000
C        2.68260000       0.40650000       1.30060000
H       -0.54150000       2.00740000       0.80840000
H       -0.49030000       1.87860000      -0.96370000
H        3.06920000       1.09410000      -0.72740000
H        1.17720000      -0.08540000      -1.79820000
H        1.70220000      -1.28060000      -0.58160000
H       -0.85420000      -0.46290000      -0.37250000
H       -0.66550000      -0.35240000       2.13970000
H        1.59780000      -0.00410000       3.20410000
H        3.50010000      -0.32270000       1.23870000
H        3.07530000       1.29620000       1.80400000
