15
Properties=species:S:1:pos:R:3 gdb_44650=T pbc="F F F"
N       -0.01360000       1.30200000       0.05420000
C       -0.04210000       0.04930000       0.05920000
C       -1.15800000      -0.98820000       0.04460000
C       -0.01580000      -2.05900000      -0.01640000
C        0.31730000      -2.83600000      -1.25460000
C        1.39480000      -2.31130000      -1.85060000
C        1.81370000      -1.05710000      -1.15850000
O        2.61010000      -0.22300000      -1.50680000
N        0.98320000      -0.96760000      -0.00400000
H        0.94650000       1.64840000       0.00650000
H       -1.79040000      -1.02410000       0.93280000
H       -1.78400000      -0.93320000      -0.84810000
H        0.03050000      -2.69080000       0.87760000
H       -0.21300000      -3.73200000      -1.55420000
H        1.89790000      -2.66200000      -2.74110000
