13
Properties=species:S:1:pos:R:3 gdb_130100=T pbc="F F F"
N       -0.04510000       1.28720000       0.15330000
C        0.01070000      -0.08470000       0.05780000
N       -1.10100000      -0.83410000       0.03220000
N       -0.54110000      -2.07560000       0.00740000
N       -1.01680000      -3.34630000      -0.02850000
C        0.08080000      -4.06150000      -0.04490000
N        1.23000000      -3.28890000      -0.02330000
C        0.80240000      -1.99020000       0.01100000
N        1.22340000      -0.73900000       0.04110000
H        0.76960000       1.74800000      -0.22350000
H       -0.91670000       1.68410000      -0.16540000
H        0.10100000      -5.13770000      -0.07240000
H        2.18080000      -3.61320000      -0.02420000
