16
Properties=species:S:1:pos:R:3 gdb_132585=T pbc="F F F"
C       -0.01110000       1.50450000      -0.01840000
C        0.00050000      -0.00150000       0.00350000
N       -0.05880000      -0.63450000      -1.16680000
C       -0.04080000      -1.96840000      -1.20530000
C        0.03680000      -2.71780000      -0.04220000
F        0.05070000      -4.05290000      -0.10810000
C        0.09510000      -2.09670000       1.19280000
C        0.07930000      -0.70120000       1.23140000
N        0.19790000      -0.01420000       2.43560000
H        0.87580000       1.92240000       0.47400000
H       -0.03400000       1.84720000      -1.05320000
H       -0.89080000       1.91700000       0.49590000
H       -0.08860000      -2.45540000      -2.17420000
H        0.15400000      -2.69140000       2.09820000
H       -0.04780000      -0.54370000       3.25910000
H       -0.20420000       0.91090000       2.44900000
