23
Properties=species:S:1:pos:R:3 gdb_101576=T pbc="F F F"
C        0.01170000       1.56610000      -0.08060000
C        0.00160000       0.03860000       0.01280000
C       -1.40510000      -0.57600000       0.04410000
C       -1.36960000      -2.10770000      -0.04170000
N       -2.12250000      -0.11420000       1.23360000
C       -3.50570000      -0.07080000       1.23580000
O       -4.18060000      -0.22270000       0.23090000
N       -4.05360000       0.16070000       2.48480000
C       -5.47120000       0.45090000       2.60310000
H        1.03440000       1.95550000      -0.08200000
H       -0.47730000       1.90540000      -1.00010000
H       -0.52360000       2.01440000       0.76100000
H        0.53900000      -0.38940000      -0.84160000
H        0.55470000      -0.28690000       0.90640000
H       -1.98390000      -0.19720000      -0.80330000
H       -2.38630000      -2.50840000      -0.03790000
H       -0.87430000      -2.43620000      -0.96140000
H       -0.82180000      -2.53790000       0.80580000
H       -1.67750000      -0.32600000       2.11570000
H       -3.45050000       0.58580000       3.17150000
H       -5.83560000       0.12990000       3.58320000
H       -5.70240000       1.51690000       2.47230000
H       -5.99280000      -0.10520000       1.82410000
