16
Properties=species:S:1:pos:R:3 gdb_33475=T pbc="F F F"
C       -0.00160000      -1.24360000      -0.08010000
C       -0.00770000      -0.04200000      -0.05010000
C       -0.00730000       1.41370000       0.02200000
C       -0.25690000       2.04250000       1.44790000
C        1.15720000       2.59560000       1.36470000
C        2.14410000       1.53250000       1.11120000
N        1.38770000       2.06550000      -0.04190000
C       -0.86310000       1.98330000      -1.01050000
C       -1.58380000       2.46870000      -1.83940000
H       -0.00230000      -2.30480000      -0.12630000
H       -1.03530000       2.80350000       1.40810000
H       -0.46880000       1.33760000       2.25490000
H        1.44230000       3.60740000       1.63140000
H        3.19100000       1.81580000       1.07030000
H        1.95780000       0.51420000       1.44130000
H       -2.21430000       2.88870000      -2.58370000
