21
Properties=species:S:1:pos:R:3 gdb_122438=T pbc="F F F"
C       -0.34180000       1.42870000       0.62520000
C        0.01860000       0.01340000       0.23720000
O       -1.04170000      -0.75200000      -0.27710000
C        1.40740000      -0.29940000      -0.29550000
C        0.98560000      -0.80000000       1.05820000
O        1.63550000      -0.24290000       2.15600000
C        0.89540000      -0.32120000       3.37010000
C        1.68160000       0.47090000       4.40320000
O        1.87010000       1.81180000       3.99210000
H        0.44230000       1.88410000       1.23450000
H       -0.49430000       2.05550000      -0.26170000
H       -1.27090000       1.43150000       1.20360000
H       -1.25010000      -0.41550000      -1.15610000
H        1.49640000      -1.02530000      -1.09580000
H        2.13390000       0.50620000      -0.31010000
H        0.74850000      -1.85980000       1.15400000
H       -0.10350000       0.11490000       3.23420000
H        0.77780000      -1.36970000       3.68560000
H        1.12880000       0.49650000       5.34770000
H        2.64450000      -0.03080000       4.58770000
H        2.28310000       1.76050000       3.12250000
