18
Properties=species:S:1:pos:R:3 gdb_50855=T pbc="F F F"
N        0.94950000       0.00230000       0.38350000
C       -0.16120000       0.33510000      -0.13870000
N       -1.34900000      -0.12330000       0.39680000
C       -2.59440000       0.17590000      -0.15810000
O       -2.72180000       0.84640000      -1.16220000
N       -3.64630000      -0.38250000       0.53250000
C       -4.99640000      -0.04430000       0.18850000
C       -5.62680000      -0.72000000      -0.99670000
C       -6.04920000      -1.10000000       0.39980000
H        1.71880000       0.42710000      -0.13010000
H       -0.32780000       0.97460000      -1.00770000
H       -1.26280000      -0.74710000       1.18630000
H       -3.48280000      -0.68460000       1.48110000
H       -5.27810000       0.99040000       0.36960000
H       -6.30250000      -0.13260000      -1.60680000
H       -5.01070000      -1.42110000      -1.54590000
H       -5.72130000      -2.06220000       0.77780000
H       -7.01990000      -0.78060000       0.76110000
