19
Properties=species:S:1:pos:R:3 gdb_63912=T pbc="F F F"
C        0.12430000       1.55100000      -0.00440000
C       -0.03470000       0.02670000       0.00640000
O       -1.43550000      -0.31160000      -0.00680000
C        0.53240000      -0.58760000      -1.28520000
C        0.71110000      -2.09670000      -1.20340000
O        2.03540000      -2.55910000      -0.89870000
C        1.00360000      -2.70890000       0.09700000
C        1.08040000      -1.82130000       1.28630000
C        0.62040000      -0.57170000       1.24160000
H        1.18000000       1.84170000      -0.00100000
H       -0.35450000       1.97420000      -0.89200000
H       -0.34950000       1.99190000       0.88030000
H       -1.79060000      -0.13720000       0.87160000
H       -0.14710000      -0.32760000      -2.10230000
H        1.50680000      -0.14080000      -1.50330000
H        0.20110000      -2.69520000      -1.95620000
H        0.71890000      -3.74450000       0.28070000
H        1.51760000      -2.22410000       2.19610000
H        0.67560000       0.06510000       2.12270000
