15
Properties=species:S:1:pos:R:3 gdb_74162=T pbc="F F F"
C       -0.05770000       1.55710000      -0.00610000
C       -0.04720000       0.06310000       0.01340000
C       -1.17500000      -0.81040000       0.03610000
C       -0.67060000      -2.08600000       0.04750000
N       -1.25420000      -3.32580000       0.13770000
H       -2.20580000      -3.36980000      -0.19410000
H       -0.68140000      -4.08110000      -0.21200000
O        0.67410000      -2.07770000       0.03160000
C        1.06040000      -0.74440000       0.01070000
C        2.43350000      -0.45760000      -0.01420000
N        3.56290000      -0.18850000      -0.03680000
H        0.95810000       1.95840000      -0.02500000
H       -0.59100000       1.93440000      -0.88540000
H       -0.56710000       1.95700000       0.87730000
H       -2.21610000      -0.53010000       0.04640000
