18
Properties=species:S:1:pos:R:3 gdb_31064=T pbc="F F F"
C        0.11240000       1.37430000      -0.16830000
N       -0.00850000       0.03240000       0.39200000
C       -1.21330000      -0.64580000       0.16270000
C       -1.36150000      -1.96010000      -0.15680000
O       -0.44330000      -2.90510000      -0.46030000
O       -2.68410000      -2.30490000      -0.22630000
C       -3.40090000      -1.17410000       0.04900000
C       -4.88140000      -1.29870000       0.03270000
C       -2.55550000      -0.13560000       0.28750000
H        1.10790000       1.76450000       0.05990000
H       -0.04240000       1.42100000      -1.25830000
H       -0.61620000       2.04060000       0.30350000
H        0.77300000      -0.55170000       0.12200000
H       -0.44270000      -3.59240000       0.21830000
H       -5.23450000      -2.03350000       0.76590000
H       -5.33500000      -0.33420000       0.27260000
H       -5.25160000      -1.61540000      -0.94950000
H       -2.84810000       0.87270000       0.53580000
