21
Properties=species:S:1:pos:R:3 gdb_69487=T pbc="F F F"
C       -0.22310000       1.50250000      -0.02050000
C        0.00520000       0.00830000      -0.02040000
C       -0.71430000      -0.84310000       0.99490000
C        0.78880000      -0.69440000       1.07890000
C        1.61920000      -1.79000000       0.43370000
C        2.89270000      -2.25010000       1.08700000
O        0.82140000      -2.81390000      -0.19590000
C        1.36370000      -1.76920000      -1.01860000
C        0.39310000      -0.64830000      -1.35780000
H        0.64220000       2.04110000      -0.42520000
H       -1.09470000       1.77180000      -0.62940000
H       -0.40450000       1.87390000       0.99330000
H       -1.30430000      -0.31840000       1.73990000
H       -1.09760000      -1.81200000       0.70050000
H        1.23030000      -0.14430000       1.90270000
H        2.68520000      -2.71270000       2.05810000
H        3.40220000      -2.98650000       0.46070000
H        3.56890000      -1.40520000       1.25620000
H        2.08790000      -2.10320000      -1.75990000
H       -0.47260000      -1.01340000      -1.92180000
H        0.90710000       0.08430000      -1.99230000
