15
Properties=species:S:1:pos:R:3 gdb_55338=T pbc="F F F"
O       -0.20100000      -0.03780000       0.02260000
C       -0.06380000       1.28470000      -0.12540000
O        0.97810000       1.82890000      -0.36580000
C       -1.37270000       2.05590000       0.05380000
N       -2.58000000       1.20520000       0.14360000
H       -3.16420000       1.17560000      -0.68480000
H       -1.14870000      -0.19510000       0.21060000
C       -3.11160000       1.98770000       1.28530000
C       -1.70060000       2.62770000       1.48250000
C       -0.93800000       2.07180000       2.58840000
N       -0.35920000       1.62810000       3.48480000
H       -1.40640000       2.85410000      -0.69410000
H       -3.85680000       2.74100000       1.00750000
H       -3.49410000       1.38160000       2.10890000
H       -1.68470000       3.71590000       1.54240000
