19
Properties=species:S:1:pos:R:3 gdb_103802=T pbc="F F F"
C        0.32610000       1.35730000       0.15190000
C       -0.02590000      -0.10480000      -0.03430000
C       -1.44450000      -0.48430000       0.34830000
O       -1.67640000      -0.23970000       1.72240000
C        0.71650000      -0.90250000      -1.06830000
N        0.93910000      -1.13170000       0.35090000
C        2.10610000      -0.85870000       1.07210000
N        3.25470000      -1.35000000       0.49290000
O        2.08590000      -0.27200000       2.13560000
H        1.37220000       1.55630000      -0.09260000
H       -0.30410000       1.97220000      -0.49920000
H        0.15300000       1.66000000       1.18610000
H       -2.16850000       0.12630000      -0.20240000
H       -1.61860000      -1.53950000       0.08780000
H       -0.94050000      -0.63600000       2.20630000
H        0.22610000      -1.71150000      -1.60520000
H        1.49090000      -0.38210000      -1.62830000
H        3.17200000      -2.07670000      -0.20000000
H        4.04390000      -1.42030000       1.11610000
