25
Properties=species:S:1:pos:R:3 gdb_104665=T pbc="F F F"
C       -0.46150000      -0.31500000      -2.35300000
C       -0.27680000      -0.94280000      -0.96560000
C       -1.59080000      -1.13420000      -0.22910000
O       -2.34820000       0.04950000      -0.09520000
C       -1.83290000       0.98110000       0.83390000
C       -2.46530000      -2.34310000      -0.44500000
C       -2.13430000      -3.47210000      -1.39790000
C       -1.75980000      -2.14190000       0.89280000
C       -0.65580000      -3.04740000       1.39790000
H        0.50480000      -0.13860000      -2.83540000
H       -1.05050000      -0.96760000      -3.00530000
H       -0.98960000       0.63920000      -2.28020000
H        0.23620000      -1.90370000      -1.06050000
H        0.39010000      -0.31290000      -0.36250000
H       -1.67580000       0.52630000       1.82260000
H       -0.88360000       1.42640000       0.50370000
H       -2.57400000       1.77940000       0.92580000
H       -3.52310000      -2.09540000      -0.41770000
H       -1.06520000      -3.69450000      -1.44240000
H       -2.64500000      -4.39350000      -1.09600000
H       -2.46190000      -3.23400000      -2.41570000
H       -2.42360000      -1.79220000       1.68010000
H        0.00020000      -3.40250000       0.59970000
H       -0.02670000      -2.53030000       2.13120000
H       -1.07490000      -3.93210000       1.89070000
