15
Properties=species:S:1:pos:R:3 gdb_13575=T pbc="F F F"
C        0.06810000       1.51280000      -0.57070000
C       -0.03970000       0.09670000      -0.06550000
N        1.19350000      -0.66650000       0.06110000
C        0.45480000      -0.34310000       1.29390000
C        1.09460000       0.61950000       2.24710000
O        1.94910000       1.42210000       1.93780000
C        0.57610000       0.54670000       3.60600000
C        0.14790000       0.47160000       4.72880000
H        0.96320000       1.99430000      -0.17540000
H        0.12690000       1.51140000      -1.66440000
H       -0.81200000       2.09600000      -0.28020000
H       -0.92730000      -0.44300000      -0.39670000
H        1.05000000      -1.64620000      -0.16920000
H       -0.11920000      -1.12990000       1.77720000
H       -0.21930000       0.42300000       5.72530000
