16
Properties=species:S:1:pos:R:3 gdb_7118=T pbc="F F F"
C        0.01670000       1.57190000      -0.25230000
C       -0.04900000       0.07520000      -0.01660000
O        0.57000000      -0.56920000      -1.14540000
C        0.59290000      -1.92610000      -1.08720000
O        0.14840000      -2.58840000      -0.19180000
N        1.21770000      -2.37760000      -2.24220000
C        1.47370000      -3.68690000      -2.63110000
N        1.16020000      -4.71230000      -1.95750000
H        1.05340000       1.90900000      -0.34140000
H       -0.51560000       1.84790000      -1.16700000
H       -0.44570000       2.09880000       0.58750000
H        0.48010000      -0.21930000       0.89510000
H       -1.08020000      -0.28010000       0.07420000
H        1.51830000      -1.64940000      -2.86960000
H        1.98460000      -3.69320000      -3.60250000
H        1.45500000      -5.55050000      -2.45540000
