15
Properties=species:S:1:pos:R:3 gdb_131725=T pbc="F F F"
O        0.06220000       1.24630000       0.45870000
C       -0.00080000      -0.12830000       0.11560000
C       -1.40690000      -0.61360000      -0.01770000
N       -2.06790000      -0.84780000      -1.10560000
N       -3.35480000      -1.21420000      -0.71010000
C       -3.36360000      -1.16930000       0.58340000
C       -4.48060000      -1.53080000       1.50650000
O       -4.28190000      -2.79340000       2.12090000
O       -2.16240000      -0.79620000       1.09660000
H       -0.30120000       1.74830000      -0.27920000
H        0.51480000      -0.35220000      -0.82610000
H        0.50190000      -0.66610000       0.92410000
H       -4.53910000      -0.80320000       2.32050000
H       -5.41190000      -1.48460000       0.92900000
H       -4.30700000      -3.46250000       1.42780000
