17
Properties=species:S:1:pos:R:3 gdb_24484=T pbc="F F F"
C       -0.04710000       1.51570000       0.01050000
C        1.41200000       1.90690000      -0.00100000
C        2.19600000       0.81560000      -0.01450000
C        1.36660000      -0.39150000      -0.01340000
C        1.70630000      -1.74180000      -0.02410000
C        0.68320000      -2.69030000      -0.01980000
C       -0.65510000      -2.29600000      -0.00500000
C       -0.99770000      -0.94020000       0.00580000
C        0.01360000       0.00590000       0.00150000
H       -0.56920000       1.90700000       0.89450000
H       -0.58570000       1.91680000      -0.85900000
H        1.74820000       2.93590000       0.00160000
H        3.27940000       0.80680000      -0.02470000
H        2.74590000      -2.05370000      -0.03570000
H        0.93060000      -3.74690000      -0.02800000
H       -1.43760000      -3.04760000      -0.00190000
H       -2.04180000      -0.64140000       0.01720000
