18
Properties=species:S:1:pos:R:3 gdb_41877=T pbc="F F F"
C        0.01190000       1.56730000       0.07210000
O        1.39710000       1.91330000      -0.12250000
C        2.23220000       0.76250000       0.03740000
C        1.32780000      -0.24980000       0.72510000
O        1.68170000      -1.61790000       0.57230000
C        0.61900000      -2.45020000       0.79780000
N       -0.60540000      -2.17410000       0.94800000
C       -1.07000000      -0.78750000       0.79360000
C       -0.01910000       0.04360000       0.07230000
H       -0.34030000       1.98230000       1.02850000
H       -0.57580000       2.01830000      -0.73330000
H        2.56860000       0.37540000      -0.93550000
H        3.11030000       1.04700000       0.62460000
H        1.27160000      -0.03040000       1.80120000
H        0.96660000      -3.48010000       0.84430000
H       -2.01930000      -0.81830000       0.24870000
H       -1.29450000      -0.37620000       1.78690000
H        0.04650000      -0.30880000      -0.96600000
