17
Properties=species:S:1:pos:R:3 gdb_24646=T pbc="F F F"
C        1.01350000      -0.63400000      -0.81720000
C       -0.39240000      -0.94680000      -1.21250000
N       -0.10900000      -0.14440000      -0.03260000
C       -0.36070000      -0.63520000       1.25760000
C        0.63720000      -0.61570000       2.24290000
N        0.44560000      -0.99870000       3.50320000
C       -0.77340000      -1.42500000       3.84610000
C       -1.83570000      -1.48350000       2.94800000
C       -1.62920000      -1.08370000       1.63420000
H        1.60370000      -1.44800000      -0.40140000
H        1.58130000       0.12100000      -1.35270000
H       -0.86190000      -0.42240000      -2.03950000
H       -0.73460000      -1.96830000      -1.05870000
H        1.63420000      -0.26570000       1.98390000
H       -0.90420000      -1.73260000       4.88020000
H       -2.80820000      -1.83810000       3.27230000
H       -2.43250000      -1.10960000       0.90510000
