24
Properties=species:S:1:pos:R:3 gdb_7577=T pbc="F F F"
C        0.03050000       1.61180000      -0.00620000
C        0.08120000       0.08720000       0.17250000
C        0.72040000      -0.28870000       1.51750000
C       -1.28920000      -0.58590000      -0.04670000
C       -2.35260000      -0.15730000       0.97060000
C       -1.84240000      -0.51110000      -1.51000000
C       -2.16210000      -2.02770000      -1.45100000
C       -1.24950000      -2.14380000      -0.20220000
H        1.03960000       2.03710000       0.01160000
H       -0.43080000       1.89000000      -0.95950000
H       -0.53960000       2.09410000       0.79510000
H        0.73640000      -0.30840000      -0.61770000
H        0.16930000       0.14080000       2.36100000
H        0.75400000      -1.37410000       1.65750000
H        1.74770000       0.08630000       1.57570000
H       -2.54210000       0.92040000       0.92910000
H       -3.30460000      -0.66140000       0.77300000
H       -2.05890000      -0.40990000       1.99470000
H       -2.67720000       0.17220000      -1.69000000
H       -1.05140000      -0.28560000      -2.23230000
H       -3.21240000      -2.22520000      -1.22130000
H       -1.88910000      -2.62690000      -2.32280000
H       -0.24680000      -2.50110000      -0.45770000
H       -1.62120000      -2.73560000       0.63920000
