19
Properties=species:S:1:pos:R:3 gdb_90707=T pbc="F F F"
C        0.37090000       1.65790000      -0.01800000
C       -0.15190000       0.25740000       0.23080000
O        0.23180000      -0.65920000      -0.83770000
C        1.07500000      -1.43240000       0.05380000
C        0.60130000      -0.61340000       1.27510000
C       -0.26230000      -1.57990000       2.04110000
C       -0.31460000      -2.78110000       1.46660000
C        0.53760000      -2.88040000       0.21360000
O       -0.17020000      -3.30730000      -0.93330000
H        1.46160000       1.66070000      -0.10880000
H       -0.05090000       2.06300000      -0.94290000
H        0.08850000       2.32110000       0.80710000
H       -1.24180000       0.26410000       0.35340000
H        2.12400000      -1.38110000      -0.24990000
H        1.34490000      -0.08450000       1.87540000
H       -0.79930000      -1.28870000       2.93800000
H       -0.90000000      -3.62450000       1.81590000
H        1.35890000      -3.59560000       0.34990000
H       -0.58770000      -2.50600000      -1.28270000
