15
Properties=species:S:1:pos:R:3 gdb_124103=T pbc="F F F"
C        0.02870000       1.41850000       0.00950000
O        1.32240000       1.93790000      -0.00980000
C        2.05840000       1.64800000       1.18690000
C        1.85280000       0.20180000       1.51140000
N        2.53730000      -0.55630000       2.36190000
N        1.96660000      -1.76940000       2.24760000
C        0.93620000      -1.81630000       1.35500000
C        0.84200000      -0.53370000       0.86080000
O       -0.00470000      -0.00850000      -0.06420000
H       -0.50520000       1.73050000       0.92310000
H       -0.48220000       1.77870000      -0.88370000
H        3.10330000       1.87980000       0.96600000
H        1.72890000       2.30820000       2.00420000
H        2.32630000      -2.52740000       2.80070000
H        0.38520000      -2.71800000       1.14840000
