23
Properties=species:S:1:pos:R:3 gdb_104406=T pbc="F F F"
C        0.03150000       1.66630000       0.04570000
C       -0.19180000       0.15520000      -0.08640000
C        0.58610000      -0.50290000      -1.22950000
C        0.25870000       0.11790000      -2.59730000
O        1.98940000      -0.35860000      -0.93900000
C        2.66070000      -1.38370000      -1.62680000
O        1.72580000      -2.41300000      -1.90000000
C        0.47140000      -2.04800000      -1.31270000
C        0.26750000      -2.79340000       0.00300000
H        1.09760000       1.89010000       0.13840000
H       -0.35830000       2.21840000      -0.81430000
H       -0.47510000       2.04800000       0.93720000
H        0.10110000      -0.32730000       0.85020000
H       -1.25930000      -0.05340000      -0.23130000
H        0.61590000       1.14870000      -2.65050000
H        0.73140000      -0.45110000      -3.40270000
H       -0.82190000       0.11590000      -2.77410000
H        3.07590000      -1.03030000      -2.58470000
H        3.47780000      -1.74680000      -0.98800000
H       -0.30830000      -2.33810000      -2.02610000
H        1.01300000      -2.49610000       0.74630000
H       -0.72970000      -2.61290000       0.41620000
H        0.37400000      -3.86690000      -0.17510000
