18
Properties=species:S:1:pos:R:3 gdb_24344=T pbc="F F F"
C       -0.02350000       1.40460000       0.02830000
C        1.41430000       1.94730000       0.01400000
C        2.17090000       1.25390000      -1.08170000
C        3.35580000       1.56080000      -1.71040000
N        3.60510000       0.57390000      -2.63220000
C        2.60080000      -0.36250000      -2.60340000
C        1.69480000       0.03450000      -1.64780000
C        0.39070000      -0.56830000      -1.20840000
O       -0.04270000      -0.01410000       0.02700000
H       -0.55240000       1.71480000       0.93410000
H       -0.57990000       1.79300000      -0.84150000
H        1.39800000       3.03570000      -0.11950000
H        1.87410000       1.75300000       0.99190000
H        4.03850000       2.38550000      -1.57980000
H        4.40970000       0.53630000      -3.23230000
H        2.61820000      -1.21660000      -3.26170000
H       -0.39050000      -0.41350000      -1.97450000
H        0.47080000      -1.64750000      -1.04080000
