19
Properties=species:S:1:pos:R:3 gdb_53981=T pbc="F F F"
C        0.07170000       1.60330000      -0.02720000
C        0.03500000       0.06900000       0.00890000
C        0.80830000      -0.46690000       1.23450000
N       -1.35680000      -0.42690000       0.01340000
C       -2.25340000      -0.23900000       1.02610000
O       -2.01150000       0.19660000       2.13070000
C        0.74720000      -0.49490000      -1.24370000
N        0.32090000      -1.73070000      -1.65800000
O        1.63000000       0.11360000      -1.81040000
H        1.10330000       1.95020000      -0.09860000
H       -0.47090000       1.98360000      -0.89750000
H       -0.38960000       1.99950000       0.87970000
H        0.37240000      -0.07250000       2.15150000
H        0.77250000      -1.55970000       1.27570000
H        1.85390000      -0.15680000       1.16070000
H       -1.76480000      -0.60100000      -0.89420000
H       -3.26970000      -0.56450000       0.72210000
H       -0.22690000      -2.31070000      -1.04390000
H        0.88820000      -2.18820000      -2.35500000
