16
Properties=species:S:1:pos:R:3 gdb_16000=T pbc="F F F"
O        0.01790000       1.41730000      -0.20500000
C        0.01750000       0.10060000       0.30700000
C       -1.33480000      -0.55500000       0.08230000
O       -1.64770000      -0.57180000      -1.34090000
C       -1.80310000      -2.01090000      -1.36170000
C       -1.43340000      -2.07910000       0.11560000
C       -0.72680000      -3.08580000       0.90450000
O       -2.12950000      -2.82420000       1.08490000
H       -0.28660000       1.34750000      -1.11830000
H        0.80280000      -0.51690000      -0.15870000
H        0.23320000       0.16980000       1.37910000
H       -2.11980000      -0.04060000       0.65040000
H       -2.83370000      -2.31400000      -1.58200000
H       -1.11760000      -2.49280000      -2.06840000
H       -0.48580000      -4.05000000       0.45920000
H       -0.08720000      -2.78200000       1.73180000
