19
Properties=species:S:1:pos:R:3 gdb_40941=T pbc="F F F"
C        0.04340000       1.51580000      -0.10170000
O        1.31180000       1.56980000       0.58300000
C        1.46330000       0.13770000       0.51340000
C        0.01680000      -0.02040000      -0.03270000
C       -0.99360000      -0.63610000       0.93290000
C       -0.94200000      -2.13890000       0.85010000
C       -0.39030000      -2.75150000      -0.19410000
C        0.17800000      -1.98790000      -1.35560000
O       -0.10520000      -0.59790000      -1.31670000
H       -0.74430000       2.04790000       0.44450000
H        0.10390000       1.89190000      -1.13020000
H        2.23660000      -0.16000000      -0.20700000
H        1.68270000      -0.30400000       1.49210000
H       -0.78790000      -0.29340000       1.95400000
H       -2.00080000      -0.27240000       0.68400000
H       -1.36380000      -2.71210000       1.67080000
H       -0.32450000      -3.83480000      -0.24860000
H        1.26800000      -2.15850000      -1.41860000
H       -0.24650000      -2.35180000      -2.29910000
