19
Properties=species:S:1:pos:R:3 gdb_92005=T pbc="F F F"
C        0.60890000       1.38280000      -0.29520000
C        0.06780000       0.02390000       0.15210000
O        0.07280000      -0.90170000      -0.94530000
C        0.98630000      -1.93650000      -0.71760000
C        2.43600000      -1.58370000      -0.52340000
C        1.53400000      -1.85470000       0.67520000
C        0.82210000      -0.68220000       1.33810000
C        1.75300000       0.22270000       2.11850000
O        1.56400000       0.57240000       3.25580000
H        1.65640000       1.34000000      -0.60410000
H        0.02390000       1.73430000      -1.14920000
H        0.51480000       2.12030000       0.50910000
H       -0.98070000       0.16210000       0.44030000
H        0.69110000      -2.86360000      -1.19510000
H        3.17420000      -2.34550000      -0.75110000
H        2.75620000      -0.57280000      -0.74510000
H        1.71890000      -2.73770000       1.27490000
H        0.08810000      -1.06370000       2.05330000
H        2.66620000       0.53920000       1.56810000
