15
Properties=species:S:1:pos:R:3 gdb_45529=T pbc="F F F"
O        0.15860000       0.02510000       0.08560000
C        0.08940000       1.21990000       0.10010000
N       -0.94280000       2.10090000       0.32680000
C       -0.18880000       3.32030000       0.03020000
C       -0.05050000       4.34160000       1.14480000
O        0.72980000       3.87210000       2.25170000
C        1.83820000       3.15640000       1.94040000
N        2.10200000       2.51550000       0.88120000
C        1.07990000       2.41790000      -0.13060000
H       -1.93480000       1.93660000       0.42380000
H       -0.51010000       3.82170000      -0.89050000
H        0.43040000       5.24100000       0.73600000
H       -1.01750000       4.62990000       1.56480000
H        2.54380000       3.17230000       2.76850000
H        1.52900000       2.41600000      -1.12560000
