17
Properties=species:S:1:pos:R:3 gdb_32542=T pbc="F F F"
C       -0.08870000       1.56570000       0.01750000
C        0.08800000       0.03740000       0.03050000
C        0.75720000      -0.48490000      -1.21250000
C        2.01900000      -0.95290000      -1.19930000
O        2.68060000      -1.42810000      -2.28530000
C        2.02640000      -1.43810000      -3.46580000
C        0.76310000      -1.00900000      -3.61610000
C        0.00110000      -0.48700000      -2.48130000
O       -1.15580000      -0.09230000      -2.56590000
H        0.87950000       2.07380000      -0.03830000
H       -0.69060000       1.86860000      -0.84170000
H       -0.59520000       1.89930000       0.92820000
H        0.66090000      -0.26720000       0.91370000
H       -0.90020000      -0.43000000       0.10300000
H        2.64630000      -1.00340000      -0.31720000
H        2.65150000      -1.83460000      -4.25620000
H        0.28820000      -1.04490000      -4.58880000
