17
Properties=species:S:1:pos:R:3 gdb_72785=T pbc="F F F"
O        0.25490000       1.44780000       0.07650000
C        0.07740000       0.04180000       0.04520000
C        0.14120000      -0.63610000       1.46270000
C       -1.43870000      -0.62270000       1.49200000
C       -1.34130000      -0.43840000      -0.00440000
C       -1.65330000      -1.05710000      -1.14380000
C       -0.52370000      -0.93140000      -2.14930000
C        0.67880000      -0.50270000      -1.26900000
O        1.84180000      -0.52880000      -1.56980000
H        1.20700000       1.60650000       0.04380000
H        0.54930000      -1.64860000       1.43990000
H        0.64580000      -0.04150000       2.22740000
H       -1.95610000      -1.51050000       1.86170000
H       -1.80810000       0.25980000       2.02140000
H       -2.50520000      -1.70840000      -1.30620000
H       -0.30260000      -1.87000000      -2.66990000
H       -0.68430000      -0.17490000      -2.92900000
