21
Properties=species:S:1:pos:R:3 gdb_114924=T pbc="F F F"
C       -0.08380000       1.52520000      -0.04760000
C        0.04900000      -0.00070000      -0.01860000
C        0.70190000      -0.53950000       1.25730000
C       -0.09690000      -0.27650000       2.56520000
C        0.19920000      -1.48540000       3.41080000
C        0.76580000      -2.47470000       2.70290000
C        0.93840000      -2.07220000       1.24590000
C        1.12930000      -3.75640000       3.18080000
C        1.45960000      -4.85890000       3.53980000
H        0.89610000       2.00830000       0.03920000
H       -0.54040000       1.86550000      -0.98210000
H       -0.70580000       1.89000000       0.77650000
H       -0.94260000      -0.46000000      -0.13230000
H        0.63670000      -0.32930000      -0.88560000
H        1.68150000      -0.05750000       1.37280000
H        0.18520000       0.66300000       3.05330000
H       -1.17800000      -0.20340000       2.36650000
H       -0.05640000      -1.55400000       4.46180000
H        0.19620000      -2.59210000       0.62360000
H        1.92170000      -2.34510000       0.84980000
H        1.74290000      -5.82630000       3.87250000
