17
Properties=species:S:1:pos:R:3 gdb_7888=T pbc="F F F"
C       -0.14320000       1.56900000       0.03420000
C        0.01240000       0.04220000      -0.02980000
C        0.79480000      -0.50110000      -1.19930000
C        1.82530000      -1.23060000      -0.75300000
C        2.88010000      -1.97580000      -1.49730000
N        1.82950000      -1.24800000       0.65770000
C        0.80160000      -0.48950000       1.18480000
O        0.59210000      -0.28650000       2.35910000
H        0.82910000       2.06410000      -0.04720000
H       -0.77800000       1.93020000      -0.78010000
H       -0.59610000       1.85420000       0.98760000
H       -0.98870000      -0.40970000       0.02060000
H        0.55260000      -0.33290000      -2.23860000
H        3.88240000      -1.61050000      -1.24120000
H        2.85490000      -3.04620000      -1.25920000
H        2.73930000      -1.86100000      -2.57370000
H        2.53350000      -1.68050000       1.23330000
