16
Properties=species:S:1:pos:R:3 gdb_22942=T pbc="F F F"
O       -0.10220000       1.27860000      -0.07540000
N        0.00030000      -0.12080000      -0.15020000
C       -1.13320000      -0.67320000       0.00580000
C       -2.48290000      -0.05120000       0.27770000
O       -3.33240000      -1.11230000       0.71750000
C       -2.69800000      -2.34740000       0.49590000
C       -2.33160000      -2.71050000      -0.92170000
C       -1.28090000      -2.14790000       0.04070000
O       -0.22510000      -2.93060000       0.47700000
H        0.81510000       1.56060000      -0.15800000
H       -2.41610000       0.71290000       1.05940000
H       -2.89040000       0.42970000      -0.62260000
H       -2.98720000      -3.11090000       1.20800000
H       -2.22110000      -3.77000000      -1.12600000
H       -2.69930000      -2.10800000      -1.74560000
H        0.57010000      -2.59360000       0.04620000
