17
Properties=species:S:1:pos:R:3 gdb_39797=T pbc="F F F"
C       -0.01830000       1.52530000      -0.01260000
N        1.27240000       0.76910000       0.03260000
C        0.01610000       0.06380000      -0.00020000
C       -0.54430000      -1.03440000       0.92070000
O       -1.74190000      -1.06380000       0.03890000
C       -0.59560000      -1.02010000      -0.90670000
C        0.10300000      -2.06790000      -0.01940000
C        1.35240000      -2.83890000      -0.01250000
N        0.01590000      -3.49870000      -0.08480000
H       -0.24350000       2.08350000       0.89140000
H       -0.29460000       2.02590000      -0.93700000
H        1.71810000       0.77060000      -0.88190000
H       -0.69870000      -1.04800000       1.99900000
H       -0.81090000      -1.02500000      -1.97450000
H        1.95370000      -2.94140000      -0.91160000
H        1.91410000      -2.89160000       0.91690000
H       -0.24470000      -3.89890000       0.81290000
