21
Properties=species:S:1:pos:R:3 gdb_101882=T pbc="F F F"
O        0.12900000       1.41340000      -0.12740000
C        0.11480000       0.01100000       0.01780000
C       -1.31970000      -0.52070000       0.07450000
O       -2.04490000      -0.00930000      -1.05280000
C       -1.39540000      -2.04410000       0.17010000
C       -2.82640000      -2.57390000       0.30340000
C       -2.88210000      -4.11400000       0.34670000
C       -4.23860000      -4.63140000       0.47750000
C       -5.36650000      -5.03240000       0.58620000
H       -0.58800000       1.61130000      -0.74460000
H        0.64890000      -0.48770000      -0.81350000
H        0.65120000      -0.23320000       0.94160000
H       -1.81930000      -0.06750000       0.93940000
H       -1.71330000      -0.45790000      -1.84050000
H       -0.91660000      -2.48100000      -0.72000000
H       -0.79310000      -2.37140000       1.02810000
H       -3.28550000      -2.17440000       1.21500000
H       -3.43260000      -2.20940000      -0.53120000
H       -2.42230000      -4.52260000      -0.56340000
H       -2.27020000      -4.47970000       1.18220000
H       -6.35890000      -5.39690000       0.68260000
