21
Properties=species:S:1:pos:R:3 gdb_67035=T pbc="F F F"
C        0.00130000       1.53950000      -0.09980000
C        0.00830000       0.04380000      -0.01270000
C        0.44160000      -1.04900000      -0.98310000
C        1.23670000      -1.77140000       0.10330000
C        0.51280000      -0.86260000       1.15820000
C        1.31540000      -0.28390000       2.29620000
O       -0.64020000      -1.52110000       1.68390000
C       -1.51100000      -1.79580000       0.58300000
C       -1.01350000      -0.91020000      -0.55210000
H        1.00280000       1.96120000       0.04510000
H       -0.35660000       1.87160000      -1.08020000
H       -0.65670000       1.98100000       0.65810000
H        0.72410000      -0.94700000      -2.02520000
H        1.10220000      -2.85140000       0.22760000
H        2.30560000      -1.54730000       0.04060000
H        2.19000000       0.25430000       1.91970000
H        0.70400000       0.40780000       2.88360000
H        1.66170000      -1.08120000       2.96100000
H       -1.48170000      -2.86530000       0.33020000
H       -2.53760000      -1.54610000       0.87700000
H       -1.71400000      -0.56420000      -1.30390000
