9
Properties=species:S:1:pos:R:3 gdb_21324=T pbc="F F F"
N       -0.00160000      -1.15410000      -0.00290000
C        0.01450000       0.00190000       0.00230000
C       -0.02660000       1.43470000       0.01040000
C       -1.23220000       2.13610000       0.03050000
N       -1.22140000       3.46020000       0.03770000
N       -0.04880000       4.08660000       0.02540000
N        1.09040000       3.42250000       0.00650000
N        1.13120000       2.09850000      -0.00130000
H       -2.19900000       1.64300000       0.04090000
