17
Properties=species:S:1:pos:R:3 gdb_10087=T pbc="F F F"
O        0.11800000       1.37020000      -0.32560000
C        0.05940000      -0.01120000      -0.00900000
C       -1.38910000      -0.51540000       0.07380000
C       -2.11640000       0.01330000       1.32010000
O       -2.15310000       1.44340000       1.36050000
N       -2.07870000      -0.10580000      -1.14550000
C       -3.15660000      -0.76460000      -1.64150000
O       -3.70260000      -1.70330000      -1.09780000
H       -0.41600000       1.81560000       0.34950000
H        0.59170000      -0.53550000      -0.80930000
H        0.57310000      -0.23630000       0.93780000
H       -1.39820000      -1.61050000       0.12500000
H       -3.12790000      -0.40640000       1.35750000
H       -1.57970000      -0.30070000       2.22090000
H       -2.77770000       1.72640000       0.68340000
H       -1.65400000       0.64850000      -1.66540000
H       -3.49480000      -0.34400000      -2.60940000
