17
Properties=species:S:1:pos:R:3 gdb_9831=T pbc="F F F"
C        0.04650000       1.40370000       0.10320000
N        0.11920000      -0.03710000      -0.01460000
C        0.66640000      -0.65530000      -1.09380000
O        1.19620000      -0.07410000      -2.02930000
C        0.56340000      -2.16180000      -1.05330000
O        0.01490000      -2.71850000       0.11720000
C        0.19750000      -2.84350000      -2.34840000
C        1.60260000      -2.94410000      -1.82060000
H        0.48680000       1.74650000       1.04600000
H        0.60810000       1.82810000      -0.73030000
H       -0.98850000       1.76180000       0.05200000
H       -0.36630000      -0.62960000       0.64020000
H        0.73490000      -2.85530000       0.74300000
H       -0.44270000      -3.71270000      -2.25490000
H        0.02140000      -2.20370000      -3.20430000
H        2.37340000      -2.36460000      -2.31350000
H        1.91040000      -3.88920000      -1.38650000
