18
Properties=species:S:1:pos:R:3 gdb_22997=T pbc="F F F"
C        0.48040000       0.11140000      -0.91020000
C        0.13810000      -0.03940000       0.57150000
O       -0.01900000       1.22320000       1.20410000
C       -1.13190000      -0.85550000       0.83590000
O       -2.30270000      -0.21170000       0.24320000
C       -2.63130000      -1.38110000      -0.54990000
C       -1.43270000      -2.09180000       0.02460000
N       -0.86200000      -3.21430000      -0.06340000
O       -1.53620000      -4.04970000      -0.96840000
H        1.35120000       0.76260000      -1.01720000
H        0.70830000      -0.85640000      -1.36690000
H       -0.35610000       0.56430000      -1.45270000
H        0.96600000      -0.53320000       1.09380000
H       -0.82210000       1.61360000       0.83660000
H       -1.26240000      -0.96970000       1.91940000
H       -3.60660000      -1.80720000      -0.28510000
H       -2.60130000      -1.18540000      -1.62860000
H       -1.01190000      -4.85740000      -0.93410000
