15
Properties=species:S:1:pos:R:3 gdb_1137=T pbc="F F F"
C       -0.30040000       1.61910000      -0.04250000
C       -0.00920000       0.12920000      -0.07330000
C       -1.20620000      -0.72940000       0.29560000
C        0.84430000      -0.37140000      -1.26330000
C        1.90550000      -0.62680000      -0.19560000
O        3.01670000      -1.04750000      -0.14060000
O        1.12850000      -0.17860000       0.83670000
H        0.59760000       2.19770000      -0.27600000
H       -1.07510000       1.87010000      -0.77430000
H       -0.65480000       1.92010000       0.94780000
H       -2.01880000      -0.57690000      -0.42200000
H       -0.94040000      -1.79010000       0.29820000
H       -1.57490000      -0.46550000       1.29130000
H        0.48880000      -1.27170000      -1.76760000
H        1.12510000       0.37830000      -2.00520000
