18
Properties=species:S:1:pos:R:3 gdb_42728=T pbc="F F F"
O        0.07260000       0.06970000      -0.01160000
C       -0.01040000       1.27090000       0.03520000
C       -1.22250000       2.18920000       0.01040000
C       -0.77980000       3.27290000       1.05420000
C        0.32860000       3.57340000      -0.00000000
C       -0.74290000       3.22100000      -1.07560000
C        1.12550000       2.27780000       0.05580000
C        2.40270000       1.99370000       0.75020000
N        2.34280000       2.03670000      -0.71960000
H       -2.20580000       1.72510000       0.00220000
H       -1.51500000       4.07650000       1.13200000
H       -0.47340000       2.93820000       2.04890000
H        0.88630000       4.50790000      -0.01560000
H       -0.39830000       2.83780000      -2.03930000
H       -1.47730000       4.01610000      -1.22130000
H        2.95220000       2.81090000       1.20980000
H        2.50380000       1.02700000       1.23670000
H        2.31080000       1.08170000      -1.07760000
