17
Properties=species:S:1:pos:R:3 gdb_51533=T pbc="F F F"
N       -0.36170000       1.32110000       0.22340000
C       -0.14570000       0.09130000       0.06080000
O       -1.18480000      -0.77340000       0.01360000
C       -0.89870000      -2.15150000      -0.03090000
C       -1.27560000      -2.95240000       1.25410000
N       -2.16700000      -3.75750000       0.41740000
C       -1.96470000      -2.97500000      -0.80090000
C       -2.87130000      -4.89340000       0.61400000
O       -3.52280000      -5.45100000      -0.24480000
H        0.51610000       1.83580000       0.21110000
H        0.83110000      -0.39600000      -0.06680000
H        0.12720000      -2.32450000      -0.36920000
H       -0.46270000      -3.50750000       1.73380000
H       -1.79110000      -2.33380000       1.99710000
H       -2.83460000      -2.37890000      -1.09420000
H       -1.61330000      -3.55670000      -1.65760000
H       -2.78080000      -5.26220000       1.65650000
