19
Properties=species:S:1:pos:R:3 gdb_67107=T pbc="F F F"
C       -0.08560000       1.50000000      -0.09400000
C       -0.05350000       0.00480000      -0.05640000
C        0.84560000      -0.97020000      -0.85260000
N        1.93910000      -0.89600000       0.22200000
C        0.63540000      -0.92740000       0.97710000
C       -0.13180000      -0.85740000       2.27350000
C       -1.55280000      -0.85040000       1.54280000
N       -1.27760000      -0.88490000       0.05490000
C       -0.11620000      -1.84440000      -0.01640000
H        0.93770000       1.88770000      -0.09260000
H       -0.59440000       1.85620000      -0.99530000
H       -0.61040000       1.91280000       0.77450000
H        1.09280000      -0.99560000      -1.91410000
H        2.41260000      -1.80120000       0.29590000
H       -0.00300000      -1.72320000       2.92780000
H        0.04610000       0.05330000       2.85140000
H       -2.15010000      -1.72460000       1.81390000
H       -2.13070000       0.04500000       1.78370000
H       -0.23020000      -2.92990000       0.01320000
