20
Properties=species:S:1:pos:R:3 gdb_22157=T pbc="F F F"
C       -0.65890000       1.19150000       0.32620000
C        0.48280000       0.26920000      -0.13860000
C        1.19570000      -0.36530000       0.96590000
C        1.78060000      -0.87060000       1.89000000
C        2.48450000      -1.50550000       3.00280000
C        2.06970000      -2.94870000       3.22730000
C        0.63220000      -3.25950000       3.53100000
N        3.01870000      -3.80060000       3.16070000
O        2.57980000      -5.10870000       3.42270000
H       -0.27560000       1.99390000       0.96240000
H       -1.15990000       1.64340000      -0.53510000
H       -1.40130000       0.63140000       0.90150000
H        0.08030000      -0.50540000      -0.80400000
H        1.19380000       0.84440000      -0.74560000
H        3.56660000      -1.48670000       2.83830000
H        2.29300000      -0.93570000       3.92440000
H        0.37750000      -4.26940000       3.20730000
H        0.45130000      -3.20260000       4.61170000
H       -0.02320000      -2.53560000       3.04130000
H        3.38380000      -5.61970000       3.28300000
