19
Properties=species:S:1:pos:R:3 gdb_109010=T pbc="F F F"
O        0.02370000       1.42510000       0.02630000
C       -0.01480000       0.00960000      -0.00410000
C       -1.42560000      -0.45760000       0.04650000
C       -2.56030000       0.24170000       0.05710000
C       -3.72070000      -0.77420000       0.02110000
C       -3.08180000      -1.88160000       0.91270000
C       -1.81670000      -1.95380000       0.00550000
C       -2.51830000      -2.21010000      -1.34420000
C       -3.65160000      -1.50860000      -1.33470000
H        0.94470000       1.69890000      -0.00330000
H        0.46250000      -0.38630000      -0.92020000
H        0.54800000      -0.42570000       0.84190000
H       -2.66990000       1.31590000       0.02920000
H       -4.69980000      -0.39150000       0.30780000
H       -2.86680000      -1.54450000       1.93050000
H       -3.65390000      -2.81380000       0.92570000
H       -1.03120000      -2.66000000       0.27880000
H       -2.10750000      -2.81270000      -2.14320000
H       -4.38090000      -1.40290000      -2.12660000
