18
Properties=species:S:1:pos:R:3 gdb_37429=T pbc="F F F"
C       -0.08680000       1.42990000      -0.31550000
C        1.24730000       0.82430000       0.00270000
C       -0.02070000      -0.04220000      -0.01390000
C        0.53350000      -0.82100000      -1.19860000
O       -0.28080000      -0.87040000      -2.36970000
C        0.09120000      -0.11510000      -3.43410000
N        1.06970000       0.66530000      -3.59260000
C        2.04600000       0.86760000      -2.52730000
C        1.80780000       0.08650000      -1.22420000
H       -0.52400000       2.02950000       0.47620000
H       -0.31710000       1.78640000      -1.31510000
H        1.83490000       1.13560000       0.85730000
H       -0.56440000      -0.48330000       0.81190000
H        0.76570000      -1.85730000      -0.94450000
H       -0.62300000      -0.26750000      -4.24200000
H        3.02690000       0.61430000      -2.94730000
H        2.08330000       1.94380000      -2.31750000
H        2.68800000      -0.50600000      -0.96600000
