23
Properties=species:S:1:pos:R:3 gdb_98257=T pbc="F F F"
C       -0.04220000       1.49490000      -0.07980000
C        0.09260000      -0.03240000      -0.03310000
C        0.93450000      -0.52730000      -1.21960000
C        0.68350000      -0.53160000       1.31000000
C       -0.09740000      -0.04530000       2.54950000
C        0.69740000      -2.05240000       1.35500000
O       -0.28650000      -2.72520000       1.12010000
C        1.99070000      -2.75300000       1.74110000
O        1.82550000      -4.13520000       1.81690000
H        0.92800000       1.98350000       0.07380000
H       -0.41760000       1.81180000      -1.05820000
H       -0.73450000       1.87560000       0.67530000
H       -0.90720000      -0.47580000      -0.11760000
H        1.95620000      -0.13100000      -1.17010000
H        0.99530000      -1.61940000      -1.25100000
H        0.49940000      -0.19650000      -2.16780000
H        1.72090000      -0.17750000       1.39150000
H       -0.03960000       1.04050000       2.64900000
H       -1.14900000      -0.33750000       2.47520000
H        0.30790000      -0.48250000       3.46790000
H        2.75410000      -2.47280000       0.99370000
H        2.33960000      -2.33410000       2.70030000
H        0.90110000      -4.28690000       1.55920000
