10
Properties=species:S:1:pos:R:3 gdb_912=T pbc="F F F"
O        0.02380000      -0.04890000       0.00230000
C       -0.01810000       1.15890000       0.00970000
C       -1.26150000       1.93950000       0.03060000
C       -1.21190000       3.27630000       0.03710000
O       -0.03620000       3.95860000       0.02490000
C        1.09390000       3.20160000       0.00570000
N        1.17850000       1.93660000      -0.00230000
H       -2.21020000       1.41880000       0.04060000
H       -2.06130000       3.94760000       0.05210000
H        1.96970000       3.84500000      -0.00270000
