13
Properties=species:S:1:pos:R:3 gdb_24082=T pbc="F F F"
N        0.06680000      -1.10750000      -0.00650000
C        0.05800000       0.04650000       0.00150000
C       -0.01230000       1.50590000       0.01230000
O        1.32470000       2.01380000       0.00010000
C        1.38280000       3.34310000       0.00740000
N        0.41390000       4.19890000       0.02400000
C        1.08240000       5.42780000       0.02360000
C        2.41410000       5.21580000       0.00660000
O        2.62330000       3.84840000      -0.00410000
H       -0.56340000       1.86670000      -0.86310000
H       -0.54270000       1.85460000       0.90520000
H        0.54440000       6.36170000       0.03560000
H        3.29510000       5.83180000      -0.00010000
