19
Properties=species:S:1:pos:R:3 gdb_39147=T pbc="F F F"
C       -0.12340000       1.54820000       0.06460000
C        1.45220000       1.74160000       0.03520000
C        2.22170000       2.31560000       1.25710000
C        2.36550000       1.11830000       2.27320000
C        1.69930000      -0.03790000       1.55320000
C        1.46010000       0.25600000       0.27120000
C        0.03210000      -0.04180000      -0.02680000
O       -0.42940000      -0.87760000       1.02570000
C        0.60220000      -0.95790000       2.04360000
H       -0.56220000       1.83150000       1.02430000
H       -0.67230000       2.01630000      -0.75750000
H        1.79630000       2.13840000      -0.92230000
H        3.20630000       2.67230000       0.93940000
H        1.71130000       3.17370000       1.70700000
H        3.41340000       0.93980000       2.54000000
H        1.84350000       1.31670000       3.21710000
H       -0.30820000      -0.45920000      -0.97760000
H        0.88600000      -2.01200000       2.16620000
H        0.20100000      -0.61070000       3.00720000
