19
Properties=species:S:1:pos:R:3 gdb_46546=T pbc="F F F"
O        0.03510000      -0.02300000       0.02790000
C       -0.01280000       1.17740000       0.08020000
C       -1.28630000       2.03310000       0.07460000
C       -0.78960000       3.46460000      -0.17420000
C        0.59850000       3.49390000       0.48800000
C        1.46160000       4.76630000       0.36150000
C        1.27190000       4.88730000       1.88550000
O        0.48340000       3.68030000       1.92990000
C        1.19270000       2.12530000       0.15540000
H       -2.01440000       1.65450000      -0.64570000
H       -1.73500000       1.94840000       1.07210000
H       -0.67880000       3.65360000      -1.24940000
H       -1.44030000       4.23780000       0.24010000
H        2.48730000       4.59800000       0.02820000
H        1.01700000       5.56560000      -0.23510000
H        2.18330000       4.80180000       2.48890000
H        0.70370000       5.76070000       2.22720000
H        1.93520000       1.78410000       0.87940000
H        1.66780000       2.14230000      -0.83470000
