17
Properties=species:S:1:pos:R:3 gdb_121509=T pbc="F F F"
O        0.39650000       0.93060000      -0.03030000
C       -0.46000000      -0.11000000       0.38290000
C       -1.83200000      -0.00430000      -0.29100000
N       -1.63890000      -0.01480000      -1.73210000
C       -2.32060000      -0.80230000      -2.42790000
O       -2.13050000      -0.85180000      -3.77440000
C       -2.95920000      -1.75290000      -4.48700000
C       -4.34410000      -1.27240000      -4.61770000
N       -5.43390000      -0.90150000      -4.71020000
H        0.31240000       0.97300000      -0.99160000
H       -0.02940000      -1.10230000       0.16620000
H       -0.57390000      -0.02750000       1.46910000
H       -2.49900000      -0.80730000       0.06310000
H       -2.27790000       0.95920000      -0.01610000
H       -3.08980000      -1.49000000      -2.04830000
H       -2.51670000      -1.85040000      -5.48110000
H       -2.97000000      -2.74740000      -4.02220000
