21
Properties=species:S:1:pos:R:3 gdb_68449=T pbc="F F F"
O       -0.25130000       1.44580000      -0.07170000
C        0.04480000       0.06800000       0.05970000
C        0.08690000      -0.51300000       1.50430000
C       -0.79580000      -1.69190000       1.00110000
C       -1.19010000      -0.81660000      -0.22370000
C       -0.01870000      -2.95780000       0.65090000
C        1.18070000      -2.81630000      -0.24890000
C        1.70340000      -1.73400000      -0.82830000
C        1.26850000      -0.29440000      -0.78120000
H        0.54690000       1.94620000       0.13130000
H        1.06410000      -0.75420000       1.93300000
H       -0.46080000       0.14290000       2.18520000
H       -1.62480000      -1.96070000       1.66050000
H       -2.10280000      -0.24550000      -0.04000000
H       -1.25360000      -1.29970000      -1.20240000
H        0.31170000      -3.44220000       1.58260000
H       -0.70700000      -3.68130000       0.18750000
H        1.68530000      -3.76200000      -0.44390000
H        2.58800000      -1.88980000      -1.44450000
H        1.08140000       0.05430000      -1.80730000
H        2.12190000       0.30640000      -0.42290000
