19
Properties=species:S:1:pos:R:3 gdb_63864=T pbc="F F F"
C       -0.10850000       1.56620000       0.05540000
C        0.04030000       0.05200000      -0.00480000
O       -1.21450000      -0.56590000      -0.22970000
C        1.15720000      -0.55990000      -0.92870000
C        1.75030000      -1.28950000       0.27920000
C        2.15390000      -0.29750000       1.31920000
C        0.68530000      -0.66250000       1.20880000
C       -0.03900000      -1.23170000       2.29280000
C       -0.64390000      -1.70370000       3.22030000
H        0.83970000       2.06440000       0.27420000
H       -0.46600000       1.95340000      -0.90740000
H       -0.83480000       1.84010000       0.82630000
H       -1.60140000      -0.16580000      -1.01600000
H        0.70230000      -1.23010000      -1.65970000
H        1.83020000       0.13890000      -1.43760000
H        2.10570000      -2.31190000       0.28880000
H        2.63990000      -0.69990000       2.20100000
H        2.49700000       0.69400000       1.03340000
H       -1.18800000      -2.12710000       4.02730000
