14
Properties=species:S:1:pos:R:3 gdb_3503=T pbc="F F F"
O       -0.22520000       0.01910000       0.12960000
C       -0.04270000       1.17780000      -0.14610000
C        1.24330000       1.94230000       0.00940000
C        1.61030000       2.63760000       1.36160000
C        1.93260000       1.21100000       1.85440000
N        2.52470000       1.20090000       0.42380000
C        3.04140000       2.60780000       0.79380000
H       -0.86680000       1.80390000      -0.56320000
H        1.38240000       2.56680000      -0.88260000
H        1.07850000       3.45020000       1.86800000
H        2.69700000       1.11400000       2.62910000
H        1.12410000       0.49680000       1.99400000
H        3.27270000       3.23390000      -0.07230000
H        3.87050000       2.58350000       1.50510000
