18
Properties=species:S:1:pos:R:3 gdb_70484=T pbc="F F F"
C       -0.04510000       1.49530000      -0.09810000
C        0.17970000       0.02200000      -0.02040000
O       -0.78230000      -0.78510000       0.68650000
C        0.60550000      -0.89110000       1.05610000
C        1.24550000      -1.87320000       0.07410000
C        0.77460000      -0.92080000      -1.09140000
N       -0.17500000      -1.43010000      -2.04520000
C        0.05060000      -1.47860000      -3.38550000
O        1.06770000      -1.11630000      -3.93870000
H        0.87530000       2.01350000      -0.38490000
H       -0.80920000       1.72990000      -0.84750000
H       -0.38260000       1.88130000       0.86720000
H        0.85470000      -0.68580000       2.09050000
H        2.33390000      -1.93140000       0.14700000
H        0.82010000      -2.87940000       0.07580000
H        1.60820000      -0.49520000      -1.64950000
H       -1.06010000      -1.74740000      -1.67920000
H       -0.81840000      -1.89660000      -3.93130000
