19
Properties=species:S:1:pos:R:3 gdb_120708=T pbc="F F F"
C       -0.44690000       1.37370000      -0.17330000
N       -0.88900000       0.02630000       0.17740000
H       -0.25970000      -0.40660000       0.84690000
H       -2.37220000      -0.22900000       0.94650000
C       -1.02200000      -0.87020000      -0.96960000
C       -1.42460000      -2.27260000      -0.53790000
N       -1.18580000      -2.62180000       0.86020000
C       -2.57580000      -2.62740000       0.35380000
C       -3.62790000      -1.71320000       0.95570000
O       -4.73700000      -2.15290000       1.14350000
O       -3.29910000      -0.46350000       1.25370000
H       -0.31050000       1.95970000       0.73880000
H        0.49570000       1.38380000      -0.74260000
H       -1.21470000       1.86410000      -0.77960000
H       -1.77580000      -0.45690000      -1.65130000
H       -0.08110000      -0.93760000      -1.54280000
H       -1.20530000      -3.02340000      -1.29550000
H       -0.84270000      -3.57140000       0.96730000
H       -3.02140000      -3.59950000       0.16250000
