15
Properties=species:S:1:pos:R:3 gdb_129472=T pbc="F F F"
N        0.54540000       0.14970000      -0.70890000
C       -0.19670000       0.20530000       0.42800000
O       -0.05540000       1.05430000       1.28500000
C       -1.30870000      -0.85890000       0.53390000
C       -0.94040000      -2.25140000       0.12800000
N       -0.56800000      -2.56750000      -1.11850000
N       -0.32590000      -3.87110000      -1.05030000
N       -0.51480000      -4.44570000       0.12530000
C       -0.90450000      -3.42980000       0.89650000
H        1.29660000       0.81120000      -0.81420000
H        0.46000000      -0.62150000      -1.35250000
H       -1.64250000      -0.84610000       1.57180000
H       -2.14520000      -0.50460000      -0.08130000
H       -0.03090000      -4.39810000      -1.85650000
H       -1.13760000      -3.57910000       1.93860000
