15
Properties=species:S:1:pos:R:3 gdb_3472=T pbc="F F F"
O        0.00310000       1.50060000      -0.06620000
C        0.01970000       0.10190000       0.01580000
C        0.06940000      -0.63300000       1.38730000
C       -1.00170000       0.09110000       2.22340000
C       -2.13050000       0.10080000       1.14360000
C       -1.34550000      -0.61270000       0.02580000
O       -0.68610000      -1.70330000       0.74280000
H        0.90870000       1.81780000      -0.12960000
H        0.70000000      -0.36730000      -0.70210000
H        0.99100000      -0.96570000       1.86560000
H       -1.26600000      -0.48030000       3.11520000
H       -0.68750000       1.09510000       2.51730000
H       -3.00800000      -0.47780000       1.43850000
H       -2.44060000       1.10750000       0.85680000
H       -1.86590000      -0.92250000      -0.88000000
