14
Properties=species:S:1:pos:R:3 gdb_21132=T pbc="F F F"
C        0.01370000       1.38580000      -0.00240000
N        0.04270000      -0.06500000      -0.01740000
C       -1.08390000      -0.64930000       0.03800000
N       -2.39090000      -0.17300000       0.14100000
N       -3.34070000      -1.21210000       0.02190000
C       -2.61370000      -2.27640000       0.01080000
O       -3.05400000      -3.53660000      -0.02220000
N       -1.27080000      -2.03590000       0.05280000
H        1.03730000       1.76820000       0.02160000
H       -0.46870000       1.81310000      -0.89870000
H       -0.51540000       1.79160000       0.87530000
H       -2.65820000       0.70590000      -0.27160000
H       -4.01980000      -3.49980000      -0.03090000
H       -0.52570000      -2.70770000       0.00040000
