19
Properties=species:S:1:pos:R:3 gdb_100417=T pbc="F F F"
C        0.86290000       0.53870000      -0.50090000
C       -0.13490000       0.02880000       0.51020000
O        0.03460000       0.14470000       1.70900000
C       -1.35580000      -0.71940000      -0.03530000
N       -1.05420000      -2.14440000      -0.13910000
C       -1.02550000      -2.85500000       0.93090000
N       -1.21500000      -2.42750000       2.21250000
C       -0.80310000      -4.34850000       0.73600000
O       -0.76300000      -4.69310000      -0.61540000
H        1.13930000      -0.27450000      -1.18100000
H        0.40090000       1.32090000      -1.11500000
H        1.74770000       0.93580000      -0.00260000
H       -2.20020000      -0.52500000       0.64150000
H       -1.61480000      -0.35210000      -1.03280000
H       -0.98320000      -1.46350000       2.42600000
H       -1.05290000      -3.09020000       2.95410000
H        0.13730000      -4.62430000       1.24400000
H       -1.61110000      -4.88850000       1.25740000
H       -0.84450000      -3.83780000      -1.07700000
