18
Properties=species:S:1:pos:R:3 gdb_39776=T pbc="F F F"
C       -0.02450000       1.53780000      -0.02790000
C        1.30050000       0.82030000      -0.06630000
C        0.00080000       0.02620000      -0.07130000
C        0.18100000      -0.68990000      -1.42460000
O        1.59480000      -1.10110000      -1.36520000
C        1.85030000       0.35320000      -1.42600000
C        0.65760000       0.39970000      -2.39050000
C        0.64580000       0.37000000      -3.85700000
N        0.02760000       1.49340000      -3.10000000
H       -0.29640000       1.96840000       0.93140000
H       -0.34670000       2.12240000      -0.87850000
H        1.96470000       0.83380000       0.78880000
H       -0.32400000      -0.55070000       0.78550000
H       -0.50370000      -1.49230000      -1.69940000
H        2.86890000       0.61220000      -1.71010000
H        1.53290000       0.64050000      -4.42280000
H       -0.00790000      -0.34360000      -4.35220000
H       -0.98560000       1.39550000      -3.08680000
