14
Properties=species:S:1:pos:R:3 gdb_4864=T pbc="F F F"
C       -0.02410000       1.30520000      -0.05300000
O        0.11280000      -0.11840000       0.01840000
C        0.69520000      -0.56180000       1.12300000
N        1.15020000       0.11240000       2.13140000
C        1.64290000      -0.88270000       2.97730000
C        1.45840000      -2.10350000       2.43320000
N        1.75620000      -3.39300000       2.84620000
O        0.82380000      -1.89360000       1.19090000
H        0.95640000       1.78760000      -0.01470000
H       -0.51360000       1.50510000      -1.00610000
H       -0.63200000       1.67450000       0.77740000
H        2.09940000      -0.64970000       3.92590000
H        2.40110000      -3.86950000       2.22380000
H        0.93130000      -3.97410000       2.95670000
