19
Properties=species:S:1:pos:R:3 gdb_115837=T pbc="F F F"
O       -0.15580000       1.38110000       0.44200000
C       -0.05450000       0.01320000       0.11450000
C       -1.42410000      -0.60210000      -0.16310000
O       -2.24820000      -0.62940000       0.98910000
C       -3.29670000       0.31580000       0.80910000
C       -3.40240000       0.40050000      -0.69560000
C       -4.52800000      -0.17940000      -1.50370000
C       -4.27140000       1.32250000      -1.47370000
O       -2.07430000       0.21160000      -1.13590000
H       -0.65480000       1.78400000      -0.27880000
H        0.59010000      -0.15790000      -0.76350000
H        0.39380000      -0.49920000       0.97060000
H       -1.32080000      -1.63560000      -0.52960000
H       -4.20100000      -0.06310000       1.29250000
H       -3.02370000       1.28470000       1.24980000
H       -4.26110000      -0.70610000      -2.41280000
H       -5.39810000      -0.56770000      -0.98470000
H       -4.96250000       1.96010000      -0.93200000
H       -3.84300000       1.77240000      -2.36230000
