16
Properties=species:S:1:pos:R:3 gdb_24711=T pbc="F F F"
C       -0.03410000       1.51530000       0.08740000
O        1.25110000       1.92840000      -0.38430000
C        2.10580000       0.81000000      -0.61850000
C        1.24580000      -0.40170000      -0.37900000
N        1.62640000      -1.66430000      -0.53180000
C        0.69300000      -2.58590000      -0.25790000
C       -0.60090000      -2.28200000       0.16350000
C       -0.97380000      -0.94660000       0.31870000
C       -0.01700000       0.01540000       0.03620000
H       -0.19810000       1.89460000       1.10800000
H       -0.81140000       1.95470000      -0.55380000
H        2.49280000       0.84780000      -1.64550000
H        2.96890000       0.83670000       0.06320000
H        0.99570000      -3.62250000      -0.38210000
H       -1.30370000      -3.08220000       0.36620000
H       -1.97440000      -0.68200000       0.64670000
