21
Properties=species:S:1:pos:R:3 gdb_118556=T pbc="F F F"
C        0.00730000       1.48450000      -0.16040000
C       -0.05510000      -0.03110000      -0.08150000
O        0.66930000      -0.56580000      -1.18290000
C        0.69480000      -1.99300000      -1.25860000
C       -0.53380000      -2.47060000      -2.04490000
O       -0.58720000      -1.85980000      -3.31760000
C        2.00350000      -2.38340000      -1.95820000
C        3.23430000      -1.92420000      -1.21080000
O        4.18070000      -2.62810000      -0.96230000
H        1.04500000       1.82840000      -0.13490000
H       -0.45000000       1.84310000      -1.08710000
H       -0.52760000       1.92980000       0.68350000
H        0.38900000      -0.39030000       0.85990000
H       -1.10060000      -0.37340000      -0.09910000
H        0.66950000      -2.42220000      -0.24480000
H       -0.48660000      -3.55310000      -2.20260000
H       -1.44460000      -2.26170000      -1.46100000
H       -0.44710000      -0.91740000      -3.15920000
H        2.06050000      -3.46620000      -2.09880000
H        1.99900000      -1.91190000      -2.94950000
H        3.21050000      -0.85850000      -0.89770000
