18
Properties=species:S:1:pos:R:3 gdb_56217=T pbc="F F F"
O       -0.66010000       0.31310000      -1.04820000
C       -0.38910000       1.55030000      -0.60490000
O        0.51660000       2.21880000      -1.01980000
C       -1.33040000       2.01450000       0.52000000
N       -2.52310000       1.16780000       0.62440000
H       -1.45310000       0.03090000      -0.54330000
H       -2.71260000       0.94080000       1.59370000
C       -3.73000000       1.72000000       0.01620000
C       -3.87360000       1.55600000      -1.51630000
O       -5.04720000       0.73140000      -1.35850000
C       -4.95900000       0.79160000       0.07600000
H       -0.75240000       1.95570000       1.44810000
H       -1.56050000       3.07430000       0.35570000
H       -3.92810000       2.74470000       0.36020000
H       -4.09100000       2.47420000      -2.07360000
H       -3.05160000       1.02060000      -2.00380000
H       -4.75500000      -0.19110000       0.52180000
H       -5.86220000       1.21600000       0.52980000
