22
Properties=species:S:1:pos:R:3 gdb_113310=T pbc="F F F"
C       -0.04980000       1.52450000      -0.35890000
C       -0.02830000       0.10760000       0.22890000
C       -1.39230000      -0.54930000       0.16010000
C       -1.84630000      -1.32910000      -1.03970000
C       -1.59550000      -2.06230000       0.27530000
C       -0.42660000      -3.03840000       0.39300000
C       -0.76050000      -4.44000000      -0.12960000
C       -2.77000000      -2.46520000       1.01190000
N       -3.70250000      -2.79430000       1.61370000
H        0.93900000       1.98870000      -0.29840000
H       -0.35340000       1.51040000      -1.41070000
H       -0.75390000       2.16620000       0.18130000
H        0.71170000      -0.49390000      -0.30900000
H        0.30520000       0.14840000       1.27340000
H       -2.17290000       0.02760000       0.64980000
H       -2.86750000      -1.22590000      -1.38640000
H       -1.11880000      -1.51830000      -1.82330000
H        0.42490000      -2.63460000      -0.16190000
H       -0.11570000      -3.09810000       1.44260000
H        0.10140000      -5.10550000      -0.02540000
H       -1.59540000      -4.87950000       0.42430000
H       -1.03950000      -4.40990000      -1.18790000
