21
Properties=species:S:1:pos:R:3 gdb_77077=T pbc="F F F"
C       -0.69210000       0.99870000      -0.11480000
C       -0.01960000      -0.32560000       0.20120000
C        1.27260000      -0.73920000      -0.57990000
C        1.78920000      -1.40710000       0.73370000
C        0.75640000      -0.55270000       1.53050000
C        1.36500000       0.69770000       2.15780000
O       -0.04970000      -1.24480000       2.46590000
C        1.13250000      -1.54760000      -1.77190000
C        0.99820000      -2.23060000      -2.75330000
H        0.00960000       1.83750000      -0.05780000
H       -1.10990000       0.98400000      -1.12700000
H       -1.51380000       1.19810000       0.58130000
H       -0.74060000      -1.14470000       0.12250000
H        1.86860000       0.15240000      -0.80710000
H        1.51670000      -2.46340000       0.77110000
H        2.85000000      -1.28890000       0.96880000
H        1.96520000       1.26580000       1.44040000
H        0.58370000       1.35460000       2.55160000
H        2.02960000       0.41870000       2.98550000
H        0.44160000      -1.32510000       3.29080000
H        0.88490000      -2.83240000      -3.62040000
