19
Properties=species:S:1:pos:R:3 gdb_57110=T pbc="F F F"
O       -0.18970000       1.37580000       0.06340000
C        0.03450000      -0.03040000       0.09060000
C        0.56110000      -0.51300000      -1.19070000
C        1.04120000      -0.87810000      -2.23100000
C        0.94570000      -0.45310000       1.26180000
C        0.37990000      -0.02740000       2.64070000
C       -0.04180000      -1.36330000       3.26770000
O        0.88370000      -2.31230000       2.76140000
C        1.07070000      -1.99730000       1.39090000
H        0.62310000       1.79400000      -0.24240000
H       -0.96050000      -0.46520000       0.25310000
H        1.44370000      -1.20760000      -3.15720000
H        1.92920000      -0.00430000       1.09120000
H        1.16300000       0.43890000       3.24380000
H       -0.43870000       0.68910000       2.54450000
H        0.01670000      -1.38270000       4.35870000
H       -1.07180000      -1.62890000       2.97320000
H        0.30410000      -2.49410000       0.77290000
H        2.04630000      -2.38160000       1.08570000
