20
Properties=species:S:1:pos:R:3 gdb_97249=T pbc="F F F"
C        0.10490000       1.43710000       0.10880000
N        0.12130000      -0.01490000       0.05180000
C        0.50050000      -0.60540000      -0.99660000
O        0.97240000       0.06480000      -2.10380000
C        0.70520000      -0.52860000      -3.37500000
O        1.02330000      -1.87720000      -3.43090000
C        0.25190000      -2.60170000      -2.47630000
C        0.59350000      -2.11980000      -1.05980000
C        2.00350000      -2.57610000      -0.63990000
H        0.95330000       1.78510000       0.71110000
H        0.15700000       1.92630000      -0.86980000
H       -0.80440000       1.75830000       0.62700000
H       -0.36110000      -0.37030000      -3.61210000
H        1.33720000      -0.00280000      -4.09240000
H       -0.82080000      -2.46520000      -2.68830000
H        0.49900000      -3.65790000      -2.60910000
H       -0.14010000      -2.51370000      -0.35150000
H        2.75500000      -2.20480000      -1.34150000
H        2.24360000      -2.20430000       0.35890000
H        2.06070000      -3.66960000      -0.62540000
