19
Properties=species:S:1:pos:R:3 gdb_52398=T pbc="F F F"
O        1.02740000      -0.08730000      -0.33470000
C        0.87970000       1.03490000      -0.74030000
C        0.90910000       2.27630000       0.14710000
O        1.06030000       3.45840000      -0.59730000
C        2.38480000       3.68410000      -1.04350000
C        2.36700000       4.81490000      -2.04740000
C        3.71820000       5.20300000      -2.68520000
C        3.01330000       4.87800000      -4.01790000
O        1.83010000       4.41840000      -3.33040000
H        0.67490000       1.26590000      -1.81100000
H       -0.06270000       2.33960000       0.65370000
H        1.67940000       2.15450000       0.92370000
H        3.03760000       3.95220000      -0.19430000
H        2.80590000       2.78520000      -1.52100000
H        1.79810000       5.65540000      -1.62810000
H        4.03970000       6.23490000      -2.54150000
H        4.54190000       4.53140000      -2.43170000
H        2.80280000       5.74690000      -4.65400000
H        3.46410000       4.09030000      -4.63230000
