22
Properties=species:S:1:pos:R:3 gdb_101184=T pbc="F F F"
C        0.27550000       1.01850000      -0.86940000
O       -0.00240000      -0.28570000      -0.41810000
C       -1.34940000      -0.50100000      -0.00620000
C       -2.32200000      -0.60220000      -1.18480000
C       -1.29880000      -1.81420000       0.76320000
C       -0.89340000      -1.93730000       2.25250000
C       -2.29170000      -1.36210000       2.56220000
N       -2.60030000      -2.34450000       1.41270000
C       -1.64470000      -3.28430000       2.17620000
H        1.35090000       1.07040000      -1.05780000
H       -0.25210000       1.26760000      -1.80140000
H        0.01310000       1.77630000      -0.11370000
H       -1.65550000       0.33490000       0.64050000
H       -3.31850000      -0.86540000      -0.81950000
H       -2.39380000       0.34130000      -1.73300000
H       -1.99250000      -1.38150000      -1.87940000
H       -0.85360000      -2.56400000       0.09900000
H        0.06890000      -1.71010000       2.72260000
H       -2.76140000      -1.65070000       3.50670000
H       -2.50690000      -0.31780000       2.33390000
H       -1.22410000      -4.07860000       1.55350000
H       -2.08020000      -3.68340000       3.09600000
