15
Properties=species:S:1:pos:R:3 gdb_31417=T pbc="F F F"
C       -0.03620000       1.43820000       0.04830000
N        0.03410000      -0.00490000      -0.05760000
C        0.62210000      -0.64520000      -1.08380000
N        1.16510000       0.06810000      -2.05000000
C        1.76070000      -0.58450000      -3.09040000
O        2.30110000      -0.08440000      -4.05020000
N        1.71890000      -2.01670000      -2.99770000
C        1.13640000      -2.64630000      -1.96270000
N        0.57110000      -2.02910000      -0.97520000
H        0.96470000       1.87980000       0.07380000
H       -0.56750000       1.86900000      -0.80590000
H       -0.56580000       1.69370000       0.96770000
H       -0.36460000      -0.59220000       0.65500000
H        2.15270000      -2.52410000      -3.75500000
H        1.15270000      -3.73460000      -1.97660000
