22
Properties=species:S:1:pos:R:3 gdb_57916=T pbc="F F F"
C        0.34770000       1.42590000       0.22730000
N        0.15160000      -0.00400000       0.05920000
C        0.06910000      -0.76490000       1.28880000
C        0.02260000      -0.51660000      -1.20980000
O        0.05820000       0.20260000      -2.19760000
C       -0.19090000      -2.01820000      -1.34880000
C       -1.63830000      -2.57460000      -1.13050000
C       -1.44020000      -3.47050000      -2.38150000
C       -0.24540000      -2.57060000      -2.79560000
H        1.27490000       1.62480000       0.78000000
H        0.40410000       1.88200000      -0.75930000
H       -0.48460000       1.87000000       0.78900000
H       -0.73970000      -0.38100000       1.92540000
H       -0.13000000      -1.81580000       1.09290000
H        1.00450000      -0.68930000       1.86030000
H        0.53140000      -2.57450000      -0.74450000
H       -1.85490000      -3.06420000      -0.17740000
H       -2.38750000      -1.79590000      -1.30010000
H       -1.12230000      -4.48100000      -2.10890000
H       -2.27810000      -3.54860000      -3.07790000
H       -0.53320000      -1.77450000      -3.48400000
H        0.65410000      -3.06010000      -3.17510000
