18
Properties=species:S:1:pos:R:3 gdb_19592=T pbc="F F F"
O        0.14410000       1.45540000      -0.10420000
C        0.08000000       0.04910000      -0.05400000
C        0.19810000      -0.61520000       1.35270000
C       -1.32460000      -0.25700000       1.51950000
C       -1.34080000      -0.59400000      -0.01700000
C       -1.05910000      -2.10700000       0.04600000
C        0.29320000      -2.66230000      -0.33540000
C        0.07960000      -2.12270000       1.05950000
H       -0.44270000       1.82790000       0.56080000
H        0.76880000      -0.27280000      -0.83280000
H        0.95770000      -0.28980000       2.06420000
H       -1.91860000      -0.89710000       2.17690000
H       -1.53060000       0.78950000       1.76710000
H       -2.13050000      -0.24730000      -0.68440000
H       -1.90490000      -2.78170000       0.11800000
H        0.33510000      -3.74570000      -0.39920000
H        0.94040000      -2.17730000      -1.05510000
H        0.09570000      -2.80920000       1.89860000
