23
Properties=species:S:1:pos:R:3 gdb_115283=T pbc="F F F"
C       -0.22400000       1.40410000       0.19820000
O       -0.16820000      -0.00240000       0.34880000
C       -1.28770000      -0.66690000      -0.18240000
C       -1.06420000      -2.18100000      -0.00530000
C       -2.19750000      -2.64710000       0.95060000
C       -3.37470000      -3.22660000       0.14840000
C       -1.71420000      -3.65220000       1.99990000
C       -2.60560000      -1.29650000       1.57440000
O       -2.47750000      -0.34970000       0.51610000
H        0.69300000       1.80950000       0.63170000
H       -0.27310000       1.69040000      -0.86390000
H       -1.09180000       1.83080000       0.71440000
H       -1.44990000      -0.34200000      -1.22020000
H       -1.09310000      -2.70660000      -0.96280000
H       -0.07590000      -2.33250000       0.43450000
H       -3.06640000      -4.11520000      -0.41300000
H       -4.19740000      -3.51860000       0.81070000
H       -3.76020000      -2.49110000      -0.56430000
H       -0.87400000      -3.25200000       2.57690000
H       -2.51540000      -3.90730000       2.70310000
H       -1.38370000      -4.58430000       1.52900000
H       -3.64120000      -1.26670000       1.92420000
H       -1.94150000      -1.03420000       2.41090000
