19
Properties=species:S:1:pos:R:3 gdb_57279=T pbc="F F F"
C       -0.07540000       1.52060000      -0.08080000
C        0.00850000      -0.01010000       0.02360000
N        0.69840000      -0.38110000       1.26330000
C       -1.36130000      -0.58030000      -0.04010000
N       -2.41200000      -1.06410000      -0.03670000
C        0.84270000      -0.55510000      -1.15480000
C        0.81620000      -2.07160000      -1.45080000
C        0.21280000      -1.64690000      -2.80530000
O        0.24700000      -0.24910000      -2.42630000
H        0.92920000       1.93740000       0.02860000
H       -0.48620000       1.80790000      -1.05020000
H       -0.71410000       1.93060000       0.70690000
H        0.22740000       0.03660000       2.06060000
H        0.66070000      -1.38730000       1.40160000
H        1.84570000      -0.12230000      -1.05350000
H        1.79330000      -2.55300000      -1.49470000
H        0.14790000      -2.65870000      -0.81790000
H        0.83860000      -1.84020000      -3.68360000
H       -0.80920000      -1.98490000      -3.00230000
