23
Properties=species:S:1:pos:R:3 gdb_122444=T pbc="F F F"
C       -0.43540000       1.22970000      -0.13110000
C        0.34710000      -0.07760000       0.01480000
C        0.63740000      -0.73380000      -1.32730000
O        1.37640000      -1.92570000      -1.09710000
C        1.72160000      -2.59400000      -2.26620000
C        2.12970000      -4.03480000      -2.12590000
C        0.83190000      -3.67120000      -2.83000000
C       -0.48870000      -4.00210000      -2.17640000
O        0.83360000      -3.71770000      -4.23470000
H        0.11920000       1.96310000      -0.72680000
H       -1.40030000       1.06550000      -0.62360000
H       -0.63450000       1.67910000       0.84600000
H        1.29920000       0.10300000       0.52670000
H       -0.21130000      -0.78700000       0.63670000
H       -0.29930000      -0.96090000      -1.85990000
H        1.21830000      -0.05250000      -1.97140000
H        2.25560000      -1.99200000      -3.00280000
H        2.95900000      -4.38300000      -2.73130000
H        2.05980000      -4.46570000      -1.13280000
H       -0.45880000      -3.77000000      -1.10930000
H       -1.29520000      -3.42420000      -2.63900000
H       -0.72930000      -5.06640000      -2.28850000
H        0.78660000      -4.64350000      -4.49960000
