20
Properties=species:S:1:pos:R:3 gdb_104531=T pbc="F F F"
C       -1.54360000       0.00390000      -0.16990000
O       -0.14260000       0.12370000      -0.02100000
C        0.64130000      -0.65480000      -0.88870000
C        0.47720000      -0.22820000      -2.36660000
C        0.77870000       1.18480000      -2.58420000
N        1.02240000       2.30070000      -2.75810000
C        2.12030000      -0.70250000      -0.43500000
C        2.12780000      -2.23230000      -0.70230000
C        0.57430000      -2.20780000      -0.72980000
H       -1.90850000       0.45570000      -1.10280000
H       -1.87160000      -1.04480000      -0.13370000
H       -1.99390000       0.54090000       0.66760000
H        1.14310000      -0.83040000      -2.99390000
H       -0.54240000      -0.43100000      -2.71150000
H        2.83010000      -0.07490000      -0.97820000
H        2.17870000      -0.46710000       0.62940000
H        2.56000000      -2.48940000      -1.67290000
H        2.59510000      -2.86270000       0.05560000
H        0.14640000      -2.46440000       0.24230000
H        0.06510000      -2.78320000      -1.50750000
