19
Properties=species:S:1:pos:R:3 gdb_58388=T pbc="F F F"
C        0.13950000       1.52170000       0.19280000
C        0.05180000       0.00030000       0.02650000
C        0.74630000      -0.45930000      -1.26170000
C        0.66240000      -0.71770000       1.26290000
N        0.05630000      -0.32340000       2.52750000
C        0.75590000       0.36050000       3.48010000
O        1.89260000       0.75640000       3.35090000
C        0.57970000      -2.18160000       1.12480000
N        0.47560000      -3.32730000       1.01590000
H        1.18150000       1.84800000       0.27880000
H       -0.29880000       2.01820000      -0.67780000
H       -0.39400000       1.86640000       1.08180000
H       -1.00650000      -0.28930000      -0.02640000
H        1.80990000      -0.19470000      -1.24700000
H        0.66690000      -1.54000000      -1.40680000
H        0.29490000       0.03170000      -2.12840000
H        1.71820000      -0.43560000       1.34960000
H       -0.86910000      -0.65870000       2.74670000
H        0.15250000       0.52450000       4.39270000
