19
Properties=species:S:1:pos:R:3 gdb_33514=T pbc="F F F"
N        0.35640000      -1.17130000      -0.02910000
C        0.16810000      -0.03010000      -0.04270000
C       -0.03310000       1.39870000      -0.05860000
C       -1.08950000       1.89270000      -1.03710000
N       -2.39010000       1.31290000      -0.74830000
C       -3.28890000       2.07520000       0.11090000
C       -3.54420000       1.96420000      -1.35270000
C        0.17170000       2.13390000       1.25860000
C        1.20010000       2.25920000       0.17620000
H       -1.09800000       2.99810000      -1.00870000
H       -0.80790000       1.59530000      -2.05390000
H       -3.86950000       1.49510000       0.82170000
H       -2.95040000       3.04270000       0.47950000
H       -3.37240000       2.85660000      -1.95350000
H       -4.31440000       1.30020000      -1.73370000
H       -0.48300000       2.97620000       1.45070000
H        0.41260000       1.53910000       2.13100000
H        2.14690000       1.74890000       0.30260000
H        1.25550000       3.18680000      -0.38310000
