19
Properties=species:S:1:pos:R:3 gdb_122753=T pbc="F F F"
O        0.13690000       1.22510000      -0.39970000
C        0.01350000      -0.16850000      -0.20440000
C       -1.43940000      -0.57420000      -0.01360000
O       -2.12390000      -0.18040000      -1.19170000
C       -3.52710000      -0.35580000      -1.10500000
C       -4.16800000       0.09440000      -2.33130000
C       -4.73060000       0.46740000      -3.32860000
C       -5.37040000       0.88440000      -4.57520000
O       -5.59390000      -0.18140000      -5.48650000
H       -0.49790000       1.44920000      -1.09060000
H        0.43430000      -0.73520000      -1.05030000
H        0.58860000      -0.42480000       0.69140000
H       -1.52820000      -1.66100000       0.14940000
H       -1.86210000      -0.05760000       0.86300000
H       -3.76760000      -1.41770000      -0.92690000
H       -3.93000000       0.20610000      -0.24520000
H       -6.35820000       1.30940000      -4.36510000
H       -4.77190000       1.68820000      -5.03330000
H       -4.75470000      -0.63770000      -5.60810000
