22
Properties=species:S:1:pos:R:3 gdb_74332=T pbc="F F F"
C        0.00000000       1.61250000      -0.31610000
C       -0.00800000       0.12420000      -0.16600000
C       -0.33460000      -0.78200000      -1.08880000
C       -0.17320000      -2.20130000      -0.60010000
C       -0.00390000      -2.01770000       0.92840000
C        0.42500000      -0.54510000       1.12340000
N       -1.33080000      -3.04320000      -0.91530000
C       -1.31310000      -3.69660000      -2.22050000
C       -1.07630000      -4.48010000      -0.97810000
H        1.00400000       2.02310000      -0.14670000
H       -0.32950000       1.92230000      -1.31150000
H       -0.65640000       2.08640000       0.42500000
H       -0.64820000      -0.55550000      -2.10260000
H        0.74290000      -2.64520000      -1.04180000
H       -0.98370000      -2.18470000       1.38540000
H        0.69590000      -2.73260000       1.36880000
H        1.51230000      -0.44810000       1.25730000
H       -0.02990000      -0.08450000       2.00890000
H       -2.26740000      -3.75040000      -2.73660000
H       -0.45430000      -3.52440000      -2.86820000
H       -0.05930000      -4.82610000      -0.79740000
H       -1.85370000      -5.11810000      -0.56800000
