18
Properties=species:S:1:pos:R:3 gdb_69936=T pbc="F F F"
C        0.00010000       1.48520000      -0.12460000
C        0.00710000      -0.01090000       0.02430000
C       -0.85750000      -0.73540000       1.02420000
C        0.64090000      -0.78990000       1.22960000
C        1.47940000      -1.84770000       0.55850000
C        1.25590000      -3.36980000       0.25830000
O        1.08300000      -3.06900000      -1.18540000
C        0.94730000      -1.75040000      -0.83390000
N        0.17900000      -0.81270000      -1.19530000
H        0.95160000       1.84620000      -0.52870000
H       -0.79430000       1.79640000      -0.81100000
H       -0.17080000       1.97410000       0.83900000
H       -1.40070000      -0.13360000       1.74630000
H       -1.39650000      -1.61300000       0.68090000
H        1.05080000      -0.24830000       2.07300000
H        2.54880000      -1.64250000       0.65030000
H        2.10620000      -4.03420000       0.41680000
H        0.33170000      -3.79540000       0.65590000
