15
Properties=species:S:1:pos:R:3 gdb_133076=T pbc="F F F"
C        0.06530000       1.43430000      -0.00150000
N       -0.05820000      -0.00350000       0.05300000
C       -1.23790000      -0.67950000       0.03430000
C       -2.49830000      -0.04040000       0.04770000
N       -3.62760000      -0.73750000       0.04120000
C       -3.54700000      -2.06810000       0.01970000
C       -2.29260000      -2.67260000       0.00280000
F       -2.21410000      -3.99900000      -0.02270000
N       -1.15600000      -2.02240000       0.00850000
H        1.12450000       1.69570000       0.01770000
H       -0.37420000       1.85630000      -0.91560000
H       -0.41520000       1.91430000       0.86020000
H        0.76540000      -0.57710000      -0.02000000
H       -2.58210000       1.04060000       0.06400000
H       -4.45960000      -2.65260000       0.01370000
