17
Properties=species:S:1:pos:R:3 gdb_19919=T pbc="F F F"
O        0.05280000       1.44360000       0.39710000
C        0.16570000       0.10020000      -0.07410000
C       -1.21390000      -0.56390000      -0.13880000
C       -1.87480000      -1.33180000      -1.25730000
C       -0.97560000      -2.42430000      -1.90440000
N        0.37310000      -2.38350000      -1.27520000
C       -0.75780000      -3.06370000      -0.59530000
C       -1.63750000      -1.99460000       0.10530000
H       -0.34790000       1.96380000      -0.30600000
H        0.67120000       0.05960000      -1.04220000
H        0.80460000      -0.41470000       0.64690000
H       -1.94040000       0.09690000       0.33530000
H       -2.81800000      -1.03340000      -1.69840000
H       -1.12310000      -2.85870000      -2.88430000
H        0.93210000      -3.10860000      -1.72520000
H       -0.70270000      -4.10920000      -0.32200000
H       -2.37200000      -2.25430000       0.85740000
