16
Properties=species:S:1:pos:R:3 gdb_50302=T pbc="F F F"
N       -0.14820000       1.22990000      -0.40450000
C       -0.04190000       0.01290000      -0.10560000
N       -1.16120000      -0.79140000       0.27220000
C       -1.42780000      -1.86510000      -0.71740000
C       -0.65850000      -2.15680000       0.51210000
C        0.85880000      -2.14780000       0.43770000
N        1.13420000      -0.80440000      -0.07360000
C        2.39120000      -0.39130000      -0.43430000
O        2.68460000       0.71860000      -0.82030000
H        0.76600000       1.61420000      -0.64280000
H       -2.47010000      -2.15700000      -0.78710000
H       -0.89550000      -1.81770000      -1.66410000
H       -1.11880000      -2.69840000       1.33120000
H        1.29110000      -2.28770000       1.43520000
H        1.26570000      -2.91920000      -0.22470000
H        3.13520000      -1.20510000      -0.33540000
