16
Properties=species:S:1:pos:R:3 gdb_43252=T pbc="F F F"
O       -0.00890000       0.09250000       0.44480000
C       -0.02440000       1.23720000       0.06200000
C       -1.19400000       2.15870000      -0.06010000
C       -0.73920000       3.36400000      -0.45840000
C       -0.78150000       4.60450000       0.38610000
C        0.53520000       4.22630000       1.17090000
N        1.45290000       3.51580000       0.20680000
C        1.19870000       2.08600000      -0.27350000
C        0.67440000       3.27020000      -0.99120000
H       -2.09760000       1.98210000       0.51380000
H       -0.64850000       5.53790000      -0.16780000
H       -1.65190000       4.68110000       1.03870000
H        1.07590000       5.11230000       1.51250000
H        0.29460000       3.60120000       2.03480000
H        2.12100000       1.57460000      -0.52430000
H        0.98750000       3.62500000      -1.96870000
