20
Properties=species:S:1:pos:R:3 gdb_79190=T pbc="F F F"
C       -0.02730000       1.53490000       0.00150000
C        0.03350000       0.01110000      -0.01890000
C        0.83800000      -0.56490000      -1.18630000
O        2.22300000      -0.10530000      -1.04750000
C        2.54030000      -1.34640000      -0.41960000
C        1.22850000      -2.00040000      -0.76250000
C        1.53900000      -1.65020000       0.67830000
N        0.74090000      -0.53820000       1.16470000
C       -0.14450000      -0.88790000       2.26210000
H        0.98560000       1.94180000      -0.02730000
H       -0.59080000       1.91360000      -0.85840000
H       -0.52170000       1.89420000       0.90900000
H       -0.98960000      -0.40670000      -0.07880000
H        0.44000000      -0.36960000      -2.18270000
H        3.56780000      -1.69000000      -0.45630000
H        0.95690000      -2.94650000      -1.21010000
H        1.79020000      -2.42330000       1.39520000
H        0.44140000      -1.23030000       3.12090000
H       -0.70170000      -0.00010000       2.57790000
H       -0.87920000      -1.67550000       2.00780000
