16
Properties=species:S:1:pos:R:3 gdb_30905=T pbc="F F F"
O        0.19060000       1.28650000       0.39570000
C       -0.05860000       0.14560000      -0.43750000
C       -1.37090000      -0.49330000      -0.17340000
C       -1.71750000      -1.77590000       0.17850000
O       -0.81210000      -2.78620000       0.34090000
C       -3.13890000      -1.86020000       0.31130000
C       -3.61260000      -0.59450000       0.03640000
O       -4.85920000      -0.06230000       0.02860000
N       -2.57350000       0.21740000      -0.27230000
H        0.09160000       0.98740000       1.30640000
H        0.00800000       0.54260000      -1.45850000
H        0.72410000      -0.61760000      -0.33210000
H       -1.28320000      -3.57730000       0.61560000
H       -3.72690000      -2.73200000       0.55590000
H       -5.48240000      -0.74240000       0.30060000
H       -2.63800000       1.21550000      -0.37680000
