16
Properties=species:S:1:pos:R:3 gdb_97170=T pbc="F F F"
C       -0.19260000       1.63810000       0.36280000
N       -0.04230000       0.19670000       0.26690000
C       -1.05030000      -0.53470000       0.06940000
O       -2.35410000      -0.10370000      -0.07460000
C       -3.20970000      -1.22960000      -0.28300000
C       -2.30270000      -2.41940000      -0.25480000
C       -1.04680000      -2.00380000      -0.04890000
C        0.17120000      -2.83710000       0.05080000
O        0.16170000      -4.04260000      -0.04790000
H        0.43010000       2.11320000      -0.40400000
H       -1.22260000       1.99360000       0.25110000
H        0.19340000       1.97290000       1.33250000
H       -3.97200000      -1.25960000       0.50770000
H       -3.73190000      -1.11800000      -1.24330000
H       -2.62860000      -3.44290000      -0.38220000
H        1.10220000      -2.26530000       0.22470000
