21
Properties=species:S:1:pos:R:3 gdb_82560=T pbc="F F F"
O       -0.02180000       1.41540000      -0.02450000
C        0.08970000       0.00370000       0.04670000
C        0.59640000      -0.56130000       1.41430000
C       -0.63730000      -0.50190000       2.40000000
C       -1.21310000      -1.48710000       1.35350000
C       -2.43490000      -2.29760000       0.87300000
C       -2.06660000      -1.80500000      -0.58020000
C       -1.32720000      -0.61190000       0.10190000
C        0.23060000      -2.05290000       1.22260000
H        0.86320000       1.78710000       0.04670000
H        0.71830000      -0.37680000      -0.77230000
H        1.59110000      -0.25000000       1.74170000
H       -0.37970000      -0.93450000       3.37050000
H       -1.15130000       0.45430000       2.52560000
H       -2.44150000      -3.37310000       1.06770000
H       -3.38680000      -1.86970000       1.20140000
H       -1.39870000      -2.50450000      -1.08830000
H       -2.89400000      -1.55870000      -1.24900000
H       -2.03950000       0.20530000       0.25500000
H        0.52960000      -2.54140000       0.29000000
H        0.50900000      -2.67720000       2.07580000
