23
Properties=species:S:1:pos:R:3 gdb_90024=T pbc="F F F"
C        0.72270000       1.41490000       0.28240000
C       -0.01870000       0.11620000      -0.01920000
C        0.67190000      -0.80650000      -1.06890000
C        1.15560000      -1.72790000       0.07650000
C        0.17850000      -1.01140000       1.03840000
O        0.99060000      -3.14830000      -0.09640000
C        2.36580000      -3.41350000       0.23790000
C        2.65590000      -1.91270000       0.44540000
C        3.71890000      -1.28960000      -0.44670000
H        1.77850000       1.23150000       0.51480000
H        0.68750000       2.09920000      -0.57250000
H        0.28210000       1.93030000       1.14310000
H       -1.06530000       0.33990000      -0.24280000
H       -0.04430000      -1.34380000      -1.69640000
H        1.43080000      -0.35170000      -1.71190000
H        0.57040000      -0.71720000       2.01760000
H       -0.71940000      -1.61800000       1.18430000
H        2.45870000      -4.05360000       1.12390000
H        2.90700000      -3.88170000      -0.59540000
H        2.84810000      -1.65820000       1.49210000
H        3.55580000      -1.54250000      -1.49970000
H        3.72880000      -0.19760000      -0.36190000
H        4.71480000      -1.65120000      -0.16830000
