19
Properties=species:S:1:pos:R:3 gdb_40879=T pbc="F F F"
O        0.06430000       1.38140000      -0.44870000
C        1.39880000       1.52720000       0.08900000
C        1.34900000       0.11550000       0.69010000
C       -0.06590000       0.04840000       0.08150000
C        2.40950000      -1.01000000       0.45610000
C        3.62660000      -0.37160000       1.14190000
C        3.11670000       0.12760000       2.27250000
C        1.62950000      -0.24610000       2.18570000
C        1.73460000      -1.72480000       1.67690000
H        2.14450000       1.68540000      -0.70030000
H        1.46340000       2.35230000       0.80950000
H       -0.89390000      -0.03090000       0.79920000
H       -0.21280000      -0.69810000      -0.71090000
H        2.53820000      -1.49150000      -0.51360000
H        4.63850000      -0.34780000       0.76360000
H        3.59700000       0.67190000       3.07300000
H        0.95810000       0.05600000       2.98990000
H        0.76570000      -2.17630000       1.43930000
H        2.35360000      -2.41090000       2.25910000
