16
Properties=species:S:1:pos:R:3 gdb_46746=T pbc="F F F"
O       -0.04870000       0.08680000       0.40030000
C       -0.05960000       1.25180000       0.10540000
C       -1.30970000       2.07900000      -0.22180000
O       -0.88630000       3.34220000      -0.72000000
C        0.49150000       3.53570000      -0.46890000
C        0.93130000       4.16570000       0.87240000
N        0.35460000       3.32720000       1.95000000
C        1.59410000       2.89010000       1.26990000
C        1.13490000       2.19280000      -0.02960000
H       -1.92100000       1.57520000      -0.97980000
H       -1.90020000       2.18660000       0.69680000
H        0.94610000       4.02910000      -1.33120000
H        1.21580000       5.19330000       1.06100000
H        0.62000000       3.75030000       2.83790000
H        2.50910000       2.70980000       1.81780000
H        1.92920000       1.78420000      -0.65330000
