25
Properties=species:S:1:pos:R:3 gdb_93848=T pbc="F F F"
C       -0.86880000       1.15620000      -0.02590000
C        0.08560000      -0.03550000      -0.05630000
C        1.17310000       0.03400000      -1.15080000
C        2.35260000      -0.83620000      -0.62820000
C        1.90780000      -1.36930000       0.75160000
C        3.04440000      -1.70550000       1.71340000
C        0.87660000      -0.32860000       1.24920000
C        1.52220000       0.92190000       1.85780000
O        0.06650000      -0.97450000       2.23170000
H       -0.33400000       2.10650000       0.07620000
H       -1.45500000       1.20900000      -0.94930000
H       -1.58190000       1.07780000       0.80380000
H       -0.51300000      -0.94120000      -0.21860000
H        0.79150000      -0.31290000      -2.11540000
H        1.49410000       1.07100000      -1.30190000
H        2.60200000      -1.65460000      -1.30940000
H        3.26220000      -0.23350000      -0.52550000
H        1.31870000      -2.28280000       0.59810000
H        3.72200000      -0.85680000       1.85650000
H        2.64830000      -1.99740000       2.69100000
H        3.64310000      -2.53890000       1.33060000
H        2.19050000       1.42740000       1.15360000
H        0.75730000       1.64710000       2.15760000
H        2.09820000       0.65730000       2.74770000
H       -0.49590000      -0.30900000       2.64080000
