21
Properties=species:S:1:pos:R:3 gdb_87674=T pbc="F F F"
C       -0.56170000       1.55980000       0.08130000
C       -0.05290000       0.13010000      -0.03200000
C       -1.11830000      -0.90000000       0.30840000
C        0.79970000      -0.17380000      -1.29710000
C        1.94810000      -0.28560000      -0.31170000
C        3.12230000      -1.21920000      -0.29990000
C        3.31610000       0.28660000      -0.44280000
O        3.64410000       0.83650000      -1.68540000
O        1.12630000      -0.05840000       0.82550000
H        0.23550000       2.27300000      -0.14490000
H       -1.38970000       1.73240000      -0.61500000
H       -0.92090000       1.75680000       1.09660000
H       -1.96760000      -0.82040000      -0.37920000
H       -0.71150000      -1.91280000       0.24230000
H       -1.48720000      -0.74480000       1.32740000
H        0.53370000      -1.09850000      -1.81380000
H        0.88820000       0.63880000      -2.01980000
H        3.40510000      -1.67190000       0.64490000
H        3.27750000      -1.83510000      -1.18070000
H        3.71150000       0.81030000       0.42830000
H        4.55770000       0.60460000      -1.88340000
