20
Properties=species:S:1:pos:R:3 gdb_93924=T pbc="F F F"
C       -0.21300000       1.48360000      -0.02320000
C        0.08510000      -0.00830000      -0.02500000
C        0.87440000      -0.53230000      -1.23770000
C        1.44660000      -1.87270000      -0.74320000
C        1.55410000      -1.69070000       0.80060000
N        0.89910000      -0.40880000       1.14800000
H        1.59890000       0.30510000       1.32370000
H        0.08590000      -1.45710000       2.47430000
C        0.89360000      -2.84980000       1.57060000
O        1.10450000      -4.00700000       1.32120000
O        0.07680000      -2.44000000       2.54860000
H        0.71320000       2.06690000      -0.09460000
H       -0.84110000       1.75190000      -0.87730000
H       -0.73610000       1.78120000       0.89040000
H       -0.86210000      -0.56230000       0.04040000
H        0.25620000      -0.63760000      -2.13360000
H        1.68230000       0.17240000      -1.47340000
H        0.77790000      -2.70600000      -0.97210000
H        2.41280000      -2.10940000      -1.19180000
H        2.59810000      -1.67180000       1.12780000
