17
Properties=species:S:1:pos:R:3 gdb_75714=T pbc="F F F"
C       -0.43780000       1.34010000      -0.13080000
C        0.14390000      -0.04170000      -0.03230000
O       -0.86680000      -1.09180000       0.00740000
C       -0.34450000      -1.61490000       1.25400000
C        0.88350000      -0.68300000       1.19240000
C        1.91650000      -1.26270000       0.20500000
O        2.82810000      -2.02590000       0.32630000
C        1.27310000      -0.50460000      -1.00070000
O        0.89810000      -1.17560000      -2.15930000
H        0.35270000       2.09610000      -0.08880000
H       -0.96800000       1.45400000      -1.08230000
H       -1.14720000       1.52950000       0.67990000
H       -1.02230000      -1.39360000       2.08660000
H       -0.15600000      -2.69250000       1.21500000
H        1.21770000      -0.17570000       2.09530000
H        1.92780000       0.33310000      -1.27900000
H        0.14270000      -1.72620000      -1.90750000
