17
Properties=species:S:1:pos:R:3 gdb_31324=T pbc="F F F"
C       -0.01490000       1.48600000       0.08710000
N       -0.01190000       0.05840000      -0.16570000
C       -1.17940000      -0.66630000      -0.06260000
C       -1.29070000      -2.06890000      -0.00390000
N       -2.64660000      -2.36160000       0.04580000
C       -3.36650000      -1.22300000       0.02050000
C       -2.49870000      -0.14340000      -0.04370000
C       -0.33260000      -3.12820000       0.00660000
O       -0.62290000      -4.31630000       0.06320000
H        1.00230000       1.86750000      -0.02500000
H       -0.64360000       1.99840000      -0.64880000
H       -0.38020000       1.75210000       1.09120000
H        0.81850000      -0.42240000       0.14020000
H       -2.97660000      -3.31140000       0.09280000
H       -4.44500000      -1.23750000       0.05370000
H       -2.78720000       0.89460000      -0.07150000
H        0.73110000      -2.80480000      -0.04320000
