21
Properties=species:S:1:pos:R:3 gdb_104319=T pbc="F F F"
C        0.07010000       1.32420000      -0.15450000
O       -0.03270000      -0.08390000      -0.02640000
C       -1.32770000      -0.61090000       0.08400000
C       -2.05880000      -0.11840000       1.33750000
O       -2.06940000      -0.23880000      -1.09050000
C       -2.90990000      -1.30980000      -1.50360000
C       -2.24490000      -2.57790000      -1.00200000
C       -0.76950000      -2.70250000      -1.27510000
C       -1.24370000      -2.12960000       0.03260000
H        1.11870000       1.53470000      -0.37780000
H       -0.55450000       1.69870000      -0.97240000
H       -0.19810000       1.84960000       0.77230000
H       -2.26630000       0.95200000       1.27270000
H       -3.01480000      -0.63960000       1.44200000
H       -1.45850000      -0.31200000       2.23140000
H       -3.91790000      -1.21000000      -1.07060000
H       -3.00270000      -1.25370000      -2.59430000
H       -2.85000000      -3.46640000      -0.86570000
H       -0.34050000      -3.69770000      -1.25360000
H       -0.31180000      -2.01980000      -1.98260000
H       -1.08360000      -2.66470000       0.96030000
