23
Properties=species:S:1:pos:R:3 gdb_89054=T pbc="F F F"
C        0.16340000       1.55760000      -0.12480000
C        0.08270000       0.05320000       0.01070000
C        1.34760000      -0.77480000       0.15340000
C        0.39230000      -0.61810000       1.31510000
O        0.74660000       0.19820000       2.38500000
C        1.59400000      -0.44540000       3.32590000
C        1.95640000       0.53260000       4.40810000
C        1.00980000       0.77170000       5.55480000
C        2.29730000       0.02150000       5.78570000
H        0.92990000       1.96680000       0.53690000
H        0.40310000       1.84590000      -1.15400000
H       -0.78860000       2.02850000       0.14310000
H       -0.71700000      -0.40980000      -0.56180000
H        1.41940000      -1.73270000      -0.35060000
H        2.28120000      -0.22510000       0.22040000
H       -0.20360000      -1.48760000       1.59990000
H        1.07930000      -1.31800000       3.76370000
H        2.49630000      -0.82250000       2.81920000
H        2.51720000       1.39360000       4.05590000
H        0.92170000       1.77900000       5.94580000
H        0.08300000       0.20790000       5.56750000
H        2.23800000      -1.04800000       5.96040000
H        3.09450000       0.51380000       6.33110000
