16
Properties=species:S:1:pos:R:3 gdb_4923=T pbc="F F F"
C       -0.03870000       1.43330000      -0.03310000
N        0.02440000      -0.00250000       0.16900000
C       -1.16710000      -0.71330000       0.04780000
C       -2.43990000      -0.22880000       0.00990000
O       -3.33600000      -1.29030000      -0.04370000
C       -2.60600000      -2.42080000      -0.05410000
N       -3.33190000      -3.59720000      -0.18820000
C       -1.27130000      -2.15160000       0.00270000
H        0.96690000       1.85490000       0.03580000
H       -0.48020000       1.72210000      -1.00130000
H       -0.64680000       1.88570000       0.75850000
H        0.78590000      -0.43880000      -0.33160000
H       -2.87990000       0.75060000       0.03050000
H       -4.26200000      -3.51800000       0.20320000
H       -2.85130000      -4.39990000       0.19370000
H       -0.46270000      -2.86490000       0.02160000
