18
Properties=species:S:1:pos:R:3 gdb_96945=T pbc="F F F"
C        0.05890000       1.39020000      -0.09150000
N        0.13830000      -0.06110000      -0.00960000
C        0.55970000      -0.70680000      -0.99090000
O        1.01830000      -0.25410000      -2.24660000
C        1.40510000      -1.60380000      -2.58950000
C        0.83140000      -2.14030000      -1.28850000
C        0.20740000      -2.50460000      -2.64120000
C       -1.16210000      -2.06810000      -3.09710000
O        0.53720000      -3.83740000      -2.92950000
H        0.58300000       1.82390000       0.76670000
H        0.47820000       1.81020000      -1.01300000
H       -0.99030000       1.69640000      -0.01180000
H        2.36000000      -1.75660000      -3.07470000
H        1.17880000      -2.90290000      -0.60760000
H       -1.33900000      -1.01500000      -2.87380000
H       -1.25740000      -2.20030000      -4.18210000
H       -1.93370000      -2.67120000      -2.61040000
H        0.49870000      -3.95000000      -3.88620000
