17
Properties=species:S:1:pos:R:3 gdb_37860=T pbc="F F F"
C        0.02060000       1.49230000       0.01040000
C        1.44910000       2.01430000      -0.00100000
C        2.49160000       1.18780000       0.73390000
O        2.09460000       0.03200000       1.42790000
C        1.13840000      -0.73150000       0.73670000
C        0.00880000      -0.02860000       0.00190000
C        1.12330000      -0.72300000      -0.76330000
O        2.06560000       0.04840000      -1.46490000
C        2.47650000       1.19630000      -0.76610000
H       -0.50530000       1.86440000       0.89930000
H       -0.52300000       1.87430000      -0.86350000
H        1.56310000       3.09410000       0.00400000
H        3.29520000       1.67900000       1.27040000
H        0.94640000      -1.65230000       1.27510000
H       -0.97000000      -0.49860000       0.00910000
H        0.92040000      -1.63770000      -1.30830000
H        3.26920000       1.69370000      -1.31300000
