25
Properties=species:S:1:pos:R:3 gdb_120651=T pbc="F F F"
C       -0.36290000       1.56310000      -0.04980000
C       -0.33400000       0.04070000      -0.20660000
C        0.90590000      -0.46490000      -0.95640000
C        0.94560000      -1.97170000      -1.10360000
C        0.21550000      -2.65670000      -2.24130000
C        1.71920000      -2.62790000      -2.20850000
C        2.62390000      -1.98360000      -3.27200000
C        3.33480000      -3.36040000      -3.43350000
C        2.63180000      -3.86130000      -2.13720000
H        0.51280000       1.92130000       0.50320000
H       -0.36150000       2.06250000      -1.02540000
H       -1.25530000       1.89370000       0.49100000
H       -0.37160000      -0.43100000       0.78440000
H       -1.23450000      -0.29630000      -0.73540000
H        0.94210000      -0.00090000      -1.95130000
H        1.80890000      -0.12170000      -0.43120000
H        0.94230000      -2.51190000      -0.15740000
H       -0.28810000      -3.59860000      -2.04520000
H       -0.28780000      -2.02640000      -2.97010000
H        2.13440000      -1.57630000      -4.16100000
H        3.28480000      -1.21380000      -2.85970000
H        2.99800000      -3.89880000      -4.32270000
H        4.42690000      -3.35180000      -3.42790000
H        3.29490000      -3.84870000      -1.26550000
H        2.14530000      -4.83970000      -2.18630000
