19
Properties=species:S:1:pos:R:3 gdb_112685=T pbc="F F F"
C        0.04830000       1.34820000      -0.04470000
O       -0.14560000      -0.03850000       0.12780000
C        0.61970000      -0.59930000       1.16840000
C        0.11480000      -2.02670000       1.45170000
C        1.29400000      -2.68560000       2.17420000
O        1.28320000      -4.08340000       2.21080000
C        2.49570000      -2.13200000       1.40960000
O        3.51310000      -2.75860000       1.24320000
C        2.12640000      -0.77100000       0.83250000
H        1.07750000       1.59150000      -0.34770000
H       -0.63340000       1.67290000      -0.83410000
H       -0.18160000       1.90660000       0.87620000
H        0.51460000       0.01830000       2.07570000
H       -0.81500000      -2.03850000       2.02230000
H       -0.05860000      -2.53810000       0.49820000
H        1.35760000      -2.26540000       3.19800000
H        2.19230000      -4.35570000       2.01410000
H        2.26420000      -0.81070000      -0.25420000
H        2.77900000       0.01730000       1.21730000
