18
Properties=species:S:1:pos:R:3 gdb_79050=T pbc="F F F"
O        0.10480000       1.49000000      -0.10030000
C        0.02160000       0.09060000      -0.03430000
C        0.01070000      -0.60260000       1.35980000
C       -1.42790000      -0.13910000       1.68660000
C       -1.98210000      -1.56200000       1.75530000
C       -3.23490000      -1.63160000       0.85260000
C       -2.76630000      -0.78030000      -0.38950000
C       -1.39560000      -0.45260000       0.15250000
N       -0.82390000      -1.75950000       0.77270000
H        1.03460000       1.73750000      -0.10310000
H        0.62460000      -0.41320000      -0.80170000
H        0.84640000      -0.79170000       2.03560000
H       -1.76190000       0.78400000       2.16770000
H       -1.98270000      -2.17290000       2.66130000
H       -3.46420000      -2.66370000       0.57380000
H       -4.11720000      -1.20760000       1.34100000
H       -2.73150000      -1.36920000      -1.30890000
H       -3.38410000       0.10460000      -0.55870000
