22
Properties=species:S:1:pos:R:3 gdb_123096=T pbc="F F F"
C       -0.06610000       1.53850000       0.07390000
C        0.03670000       0.01160000       0.02480000
C        0.71770000      -0.57820000       1.26380000
C        0.81600000      -2.09610000       1.21640000
O        1.45910000      -2.54290000       2.39350000
C        1.61480000      -3.92740000       2.44480000
C        2.44530000      -4.29590000       3.68050000
N        2.31650000      -5.60990000       4.04750000
O        3.19050000      -3.52370000       4.23790000
H        0.92530000       1.99910000       0.14370000
H       -0.55580000       1.93450000      -0.82110000
H       -0.64420000       1.86770000       0.94430000
H       -0.96810000      -0.41910000      -0.08050000
H        0.59070000      -0.28840000      -0.87470000
H        1.72860000      -0.16740000       1.37180000
H        0.16780000      -0.29230000       2.16870000
H       -0.18980000      -2.54530000       1.13380000
H        1.38470000      -2.42000000       0.32690000
H        0.63860000      -4.44530000       2.47230000
H        2.14850000      -4.30940000       1.55540000
H        1.55350000      -6.17740000       3.72060000
H        2.79690000      -5.90410000       4.88270000
