20
Properties=species:S:1:pos:R:3 gdb_106002=T pbc="F F F"
C       -0.14090000       1.52780000       0.13910000
C       -0.01180000       0.00280000       0.03210000
C        0.70660000      -0.48290000      -1.19440000
C        1.01700000      -1.95160000      -1.59660000
C        0.90670000      -1.54590000      -3.01520000
C        0.33280000      -0.14990000      -2.70990000
C        1.54150000       0.81270000      -2.80480000
C        2.13500000      -0.09530000      -1.71720000
N        2.24180000      -1.49180000      -2.31900000
H        0.84130000       2.01110000       0.16370000
H       -0.69750000       1.94230000      -0.70780000
H       -0.67120000       1.80780000       1.05410000
H        0.51110000      -0.38050000       0.91950000
H       -1.01280000      -0.44990000       0.05630000
H        0.94510000      -2.91020000      -1.09510000
H        0.83630000      -2.14100000      -3.91720000
H       -0.67140000       0.10090000      -3.04830000
H        2.07350000       0.88960000      -3.75730000
H        1.30860000       1.80880000      -2.41900000
H        2.99510000       0.16950000      -1.10250000
