23
Properties=species:S:1:pos:R:3 gdb_93710=T pbc="F F F"
C       -0.10380000       1.55640000       0.01990000
C        0.04890000       0.03640000       0.02650000
C        0.80620000      -0.53270000      -1.20590000
C        1.65600000      -1.72430000      -0.69110000
C        1.24030000      -1.95210000       0.79690000
C        2.38370000      -2.53410000       1.64650000
C        0.82780000      -0.52050000       1.22890000
C        0.07960000      -2.84600000       0.86540000
C       -0.86620000      -3.58700000       0.92790000
H        0.87560000       2.05000000       0.00950000
H       -0.65510000       1.89620000      -0.86350000
H       -0.64570000       1.90920000       0.90410000
H       -0.95100000      -0.41280000       0.04960000
H        0.10880000      -0.83540000      -1.99160000
H        1.45380000       0.23550000      -1.64240000
H        1.52940000      -2.63190000      -1.28530000
H        2.72140000      -1.47130000      -0.71250000
H        3.25190000      -1.86730000       1.61790000
H        2.07550000      -2.65590000       2.68900000
H        2.69000000      -3.51500000       1.27100000
H        1.74160000       0.06730000       1.39190000
H        0.25400000      -0.51030000       2.15990000
H       -1.70130000      -4.24040000       0.98160000
