23
Properties=species:S:1:pos:R:3 gdb_64251=T pbc="F F F"
C        0.03560000       1.55550000       0.05140000
C        0.03870000       0.02540000      -0.02470000
C       -1.38260000      -0.53280000       0.06650000
C        0.80530000      -0.49630000      -1.26930000
C        2.20950000      -0.79940000      -0.72380000
C        1.87670000      -1.24270000       0.68430000
C        1.92350000      -2.68760000       1.11840000
C        2.86630000      -1.65360000       1.72000000
O        0.79360000      -0.45420000       1.11640000
H        1.04880000       1.95330000      -0.06030000
H       -0.59410000       1.98580000      -0.73440000
H       -0.34990000       1.88290000       1.02140000
H       -1.98340000      -0.21240000      -0.79170000
H       -1.36320000      -1.62640000       0.08440000
H       -1.87500000      -0.18350000       0.97900000
H        0.34030000      -1.41590000      -1.63870000
H        0.80360000       0.22990000      -2.08580000
H        2.74530000      -1.55740000      -1.29970000
H        2.82480000       0.10780000      -0.70100000
H        1.11270000      -3.03710000       1.74750000
H        2.33360000      -3.43040000       0.44130000
H        3.91680000      -1.68750000       1.45000000
H        2.66970000      -1.33590000       2.73790000
