19
Properties=species:S:1:pos:R:3 gdb_32703=T pbc="F F F"
C        0.21260000       1.35900000       0.18900000
C       -0.10240000      -0.10320000      -0.14970000
N        0.63490000      -0.56680000      -1.31570000
C        1.77430000      -1.09080000      -1.15090000
O        2.43170000      -1.31300000       0.04740000
C        3.63390000      -1.93780000      -0.23500000
C        3.75400000      -2.09970000      -1.55620000
N        2.61200000      -1.56480000      -2.14680000
C        2.26210000      -1.56680000      -3.54830000
H        1.26260000       1.47230000       0.47690000
H        0.02670000       2.00190000      -0.67680000
H       -0.40930000       1.70880000       1.02020000
H        0.09000000      -0.72960000       0.73340000
H       -1.17090000      -0.19380000      -0.37770000
H        4.26380000      -2.18090000       0.60140000
H        4.54630000      -2.53710000      -2.13940000
H        2.00020000      -2.57180000      -3.90100000
H        1.39480000      -0.91590000      -3.66530000
H        3.09070000      -1.18370000      -4.15220000
