18
Properties=species:S:1:pos:R:3 gdb_17190=T pbc="F F F"
C       -0.12440000       1.58870000       0.00910000
C        0.02690000       0.07510000       0.02430000
C        1.17350000      -0.64030000      -0.77460000
C        2.17100000      -0.18080000       0.34010000
C        0.89420000      -0.64920000       1.11400000
C        0.89180000      -1.83830000       0.14310000
C        0.19080000      -3.10690000       0.03340000
O        1.62610000      -3.02950000       0.24600000
H        0.81700000       2.12420000       0.14950000
H       -0.55310000       1.91710000      -0.94400000
H       -0.80910000       1.90910000       0.80200000
H       -0.95380000      -0.39280000      -0.12290000
H        1.33160000      -0.64470000      -1.85330000
H        3.06240000      -0.79690000       0.46900000
H        2.41640000       0.88000000       0.38140000
H        0.73340000      -0.66380000       2.19230000
H       -0.37570000      -3.49950000       0.87670000
H       -0.10690000      -3.49090000      -0.94130000
