13
Properties=species:S:1:pos:R:3 gdb_20736=T pbc="F F F"
C       -0.03540000       1.47690000      -0.03220000
C       -0.01120000      -0.01470000       0.02560000
N       -0.03170000      -0.75460000      -1.07430000
N        0.00030000      -2.03470000      -0.63850000
C        0.04070000      -2.14410000       0.70080000
C        0.03480000      -0.84610000       1.18730000
C        0.06750000      -0.43520000       2.53940000
N        0.09350000      -0.07560000       3.64060000
H        0.85360000       1.90440000       0.44270000
H       -0.07120000       1.80590000      -1.07200000
H       -0.90720000       1.87790000       0.49500000
H       -0.00790000      -2.77890000      -1.31570000
H        0.06990000      -3.09380000       1.20990000
