17
Properties=species:S:1:pos:R:3 gdb_49525=T pbc="F F F"
O        0.12160000      -0.11460000      -0.50690000
C        0.05830000       1.04430000      -0.17410000
C        1.26700000       1.92830000      -0.09570000
C        1.21760000       3.39210000      -0.67830000
C        0.36350000       3.81870000       0.56000000
C        1.47160000       2.88190000       1.14280000
C        2.43750000       3.64570000       0.22230000
C        3.87640000       3.73520000       0.04680000
O        3.06770000       4.86660000       0.47650000
H       -0.91990000       1.49750000       0.08930000
H        2.14290000       1.34080000      -0.38230000
H        1.07660000       3.67030000      -1.72210000
H        0.43370000       4.86960000       0.84450000
H       -0.66680000       3.46960000       0.60580000
H        1.62050000       2.57760000       2.17810000
H        4.54900000       3.34080000       0.80640000
H        4.30440000       3.83280000      -0.94930000
