21
Properties=species:S:1:pos:R:3 gdb_91645=T pbc="F F F"
C       -0.22710000       1.61290000      -0.09830000
C       -0.02860000       0.10220000      -0.00760000
C       -1.35170000      -0.61780000      -0.28930000
C        1.17040000      -0.58870000      -0.72870000
C        2.43070000       0.16550000      -0.26580000
C        2.11090000       0.14840000       1.27080000
O        2.01300000       1.40600000       1.91380000
C        0.74400000      -0.56260000       1.17690000
O        1.10860000      -1.65570000       0.27790000
H        0.66230000       2.18380000       0.16080000
H       -0.54400000       1.88530000      -1.11220000
H       -1.02430000       1.92850000       0.58390000
H       -1.73060000      -0.34520000      -1.28100000
H       -1.23410000      -1.70160000      -0.24900000
H       -2.11230000      -0.32180000       0.44180000
H        1.11050000      -0.94320000      -1.75920000
H        3.33660000      -0.39090000      -0.51580000
H        2.51580000       1.18130000      -0.66010000
H        2.80930000      -0.50370000       1.80900000
H        2.90230000       1.75280000       2.03060000
H        0.26210000      -0.87690000       2.10370000
