18
Properties=species:S:1:pos:R:3 gdb_88243=T pbc="F F F"
C       -0.58130000       1.35620000       0.46380000
C       -0.02740000      -0.00320000       0.12270000
N        1.35680000      -0.05800000      -0.35620000
C        1.02400000      -0.67830000       0.95300000
C        1.58180000      -0.08350000       2.13620000
C        2.03320000       0.38900000       3.14720000
C        2.59840000       0.97040000       4.36600000
C        1.60840000       1.63200000       5.21900000
C        0.80670000       2.17780000       5.92650000
H        0.17690000       1.96570000       0.95950000
H       -0.90420000       1.87680000      -0.44390000
H       -1.44460000       1.26530000       1.13120000
H       -0.73800000      -0.68540000      -0.34350000
H        1.46920000      -0.79020000      -1.05290000
H        0.97400000      -1.76530000       0.98090000
H        3.10700000       0.18640000       4.94430000
H        3.38250000       1.69150000       4.09630000
H        0.09380000       2.65960000       6.54860000
