18
Properties=species:S:1:pos:R:3 gdb_87067=T pbc="F F F"
O       -0.06690000       1.41600000      -0.16720000
C        0.00320000       0.03150000      -0.07390000
C       -0.08110000      -0.54580000       1.29910000
C       -1.23740000      -0.77100000       0.32810000
C       -2.46390000      -0.04590000       0.52890000
C       -3.51980000       0.52220000       0.64410000
N       -1.28530000      -2.10420000      -0.23370000
C       -2.35480000      -3.00670000       0.18640000
C       -2.33780000      -2.43660000      -1.19030000
H       -0.65980000       1.64180000      -0.89240000
H        0.64440000      -0.47070000      -0.79680000
H        0.51610000      -1.41910000       1.53130000
H       -0.24980000       0.15510000       2.10740000
H       -4.44050000       1.03530000       0.77450000
H       -2.05190000      -4.03410000       0.36600000
H       -3.11050000      -2.61780000       0.86450000
H       -3.08460000      -1.67830000      -1.41200000
H       -2.02030000      -3.03950000      -2.03610000
