21
Properties=species:S:1:pos:R:3 gdb_107635=T pbc="F F F"
C       -0.36840000       1.30520000      -0.29950000
O        0.32850000       0.10420000      -0.01600000
C        0.80570000      -0.58060000      -1.12590000
C       -0.14000000      -1.29270000      -2.06120000
C        0.76670000      -2.08230000      -1.13780000
C        2.09750000      -2.52260000      -1.71040000
O        2.61790000      -1.37590000      -2.38050000
C        2.17570000      -0.19990000      -1.70000000
C        2.23930000       0.95530000      -2.68830000
H        0.29390000       2.09020000      -0.68780000
H       -1.17670000       1.14170000      -1.02490000
H       -0.79940000       1.64790000       0.64420000
H       -1.19050000      -1.27290000      -1.79330000
H        0.06640000      -1.29240000      -3.12690000
H        0.32840000      -2.62150000      -0.30700000
H        2.76870000      -2.84860000      -0.89950000
H        2.03330000      -3.32780000      -2.44990000
H        2.82970000       0.01540000      -0.83680000
H        1.51040000       0.82270000      -3.49300000
H        2.04220000       1.90790000      -2.18870000
H        3.23710000       1.00580000      -3.13340000
