17
Properties=species:S:1:pos:R:3 gdb_125690=T pbc="F F F"
C       -0.23500000       1.43920000       0.04720000
C       -0.05290000      -0.04050000       0.01110000
N       -0.02530000      -0.74390000      -1.12130000
N        0.16090000      -1.99230000      -0.71290000
N        0.26170000      -2.17970000       0.60190000
C        0.12710000      -0.94500000       1.08610000
N        0.23210000      -0.62200000       2.44160000
C       -0.99990000      -0.50510000       3.23680000
C       -0.07200000      -1.65370000       3.42530000
H        0.54140000       1.91130000       0.65800000
H       -0.18720000       1.84870000      -0.96380000
H       -1.20110000       1.71810000       0.48370000
H        0.25770000      -2.75360000      -1.36310000
H       -1.01530000       0.31610000       3.94660000
H       -1.94230000      -0.70380000       2.73240000
H       -0.38530000      -2.62250000       3.04850000
H        0.59390000      -1.67980000       4.28240000
