18
Properties=species:S:1:pos:R:3 gdb_43413=T pbc="F F F"
O       -0.01350000       0.17650000       0.83840000
C       -0.02620000       1.24200000       0.24470000
C       -1.33690000       1.88490000      -0.02890000
C       -1.66930000       2.89020000      -0.84820000
C       -0.80500000       3.70410000      -1.76230000
C        0.50560000       3.06000000      -2.23700000
N        1.53530000       2.74960000      -1.25270000
C        1.54040000       3.32380000       0.07030000
C        1.29300000       1.85120000      -0.13000000
H       -2.12720000       1.39220000       0.53160000
H       -2.72350000       3.16290000      -0.87090000
H       -1.39000000       3.95780000      -2.65590000
H       -0.59130000       4.67390000      -1.28890000
H        0.28180000       2.13030000      -2.77200000
H        0.96400000       3.74110000      -2.96370000
H        2.50550000       3.64990000       0.44960000
H        0.69430000       3.92170000       0.40240000
H        2.10390000       1.15710000       0.07460000
