19
Properties=species:S:1:pos:R:3 gdb_98311=T pbc="F F F"
O        0.20260000       1.22910000       0.10100000
C        0.01410000      -0.13880000      -0.11290000
C       -1.44140000      -0.53490000       0.04830000
O       -2.27310000       0.32280000       0.27800000
C       -1.86880000      -1.99890000      -0.05920000
O       -3.25500000      -2.10350000       0.13260000
C       -1.45460000      -2.61010000      -1.38580000
C       -0.11370000      -3.29070000      -1.53540000
C       -1.37910000      -4.10810000      -1.50720000
H       -0.68130000       1.59250000       0.26310000
H        0.33950000      -0.43780000      -1.12180000
H        0.61550000      -0.73690000       0.59040000
H       -1.33330000      -2.53910000       0.74360000
H       -3.56550000      -1.20420000       0.32000000
H       -1.83490000      -2.07410000      -2.25110000
H        0.41350000      -3.17860000      -2.47590000
H        0.53760000      -3.33840000      -0.66850000
H       -1.58640000      -4.69540000      -0.61930000
H       -1.72360000      -4.55960000      -2.43010000
