19
Properties=species:S:1:pos:R:3 gdb_112412=T pbc="F F F"
C       -0.69380000       1.38500000      -0.10530000
C        0.00330000       0.02510000      -0.08610000
C        1.26090000      -0.09030000      -0.95750000
C        2.08450000      -1.17440000      -0.27520000
O        3.01300000      -1.79410000      -0.70130000
O        1.59980000      -1.37020000       0.98830000
C        0.52600000      -0.44500000       1.29240000
C        1.09810000       0.63050000       2.21560000
O        1.65970000       0.05560000       3.37460000
H       -0.01460000       2.19490000       0.17950000
H       -1.06890000       1.60700000      -1.10880000
H       -1.54910000       1.40400000       0.57790000
H       -0.71040000      -0.73410000      -0.42700000
H        1.07400000      -0.35630000      -1.99900000
H        1.84880000       0.83580000      -0.95730000
H       -0.22160000      -1.01840000       1.84780000
H        1.83570000       1.24060000       1.66730000
H        0.29810000       1.29920000       2.54810000
H        2.26760000      -0.63130000       3.07520000
