15
Properties=species:S:1:pos:R:3 gdb_48102=T pbc="F F F"
O       -0.94410000       1.48090000      -0.25310000
C        0.10670000       1.04860000       0.14180000
C        1.35430000       1.91000000       0.37640000
O        2.34240000       1.36940000       0.82530000
C        1.24530000       3.34260000       0.02820000
C        2.23730000       4.31100000       0.62350000
C        2.36500000       3.98540000      -0.83590000
C        3.45820000       3.21140000      -1.34040000
C        4.37720000       2.58400000      -1.79520000
H        0.27720000      -0.02000000       0.38940000
H        0.24190000       3.68180000      -0.19550000
H        1.87600000       5.29500000       0.89790000
H        2.97640000       3.87120000       1.28320000
H        1.98050000       4.73000000      -1.52690000
H        5.19270000       2.02410000      -2.18120000
