19
Properties=species:S:1:pos:R:3 gdb_96185=T pbc="F F F"
C        0.05440000       1.54640000      -0.06560000
C        0.05560000       0.02720000      -0.01780000
O        0.65650000      -0.45080000      -1.22070000
C        0.79250000      -1.84000000      -1.20390000
O        1.76130000      -2.27260000      -0.28050000
C        1.48160000      -1.89620000       1.05510000
C        2.68300000      -1.16540000       1.67290000
O        2.03280000       0.11550000       1.51990000
C        0.77570000      -0.52190000       1.20940000
H        1.08100000       1.91730000      -0.04190000
H       -0.42990000       1.88830000      -0.98350000
H       -0.48630000       1.95710000       0.79220000
H       -0.98120000      -0.35340000       0.02410000
H       -0.18430000      -2.31460000      -0.98870000
H        1.14940000      -2.14830000      -2.18830000
H        1.05500000      -2.73990000       1.60950000
H        2.87210000      -1.40300000       2.72780000
H        3.60810000      -1.23820000       1.09430000
H        0.10030000      -0.48810000       2.07690000
