15
Properties=species:S:1:pos:R:3 gdb_125024=T pbc="F F F"
C       -0.00280000       1.51990000      -0.04950000
C       -0.08510000       0.05020000       0.14630000
C       -1.06940000      -0.87590000      -0.06550000
N       -2.37800000      -0.71420000      -0.49650000
C       -0.45940000      -2.10160000       0.34740000
C       -1.04350000      -3.44170000       0.31540000
O       -2.16680000      -3.66190000      -0.09250000
N        0.78020000      -1.91830000       0.77150000
O        1.01710000      -0.58300000       0.63920000
H        0.52980000       1.78790000      -0.97000000
H       -1.00980000       1.94290000      -0.10310000
H        0.52190000       1.99210000       0.78620000
H       -2.50640000      -0.03440000      -1.23190000
H       -2.81810000      -1.60080000      -0.70880000
H       -0.38340000      -4.25130000       0.68140000
