17
Properties=species:S:1:pos:R:3 gdb_42470=T pbc="F F F"
O       -0.13130000      -0.10500000       0.24860000
C       -0.01870000       1.08940000       0.07600000
C        1.31800000       1.80820000       0.06400000
C        2.50980000       0.86910000       0.26340000
C        3.81720000       1.62140000       0.25220000
C        5.02190000       1.09500000      -0.39920000
O        4.24780000       2.12530000      -1.01730000
C       -1.18060000       1.93970000      -0.13440000
C       -2.12870000       2.66010000      -0.31070000
H        1.40860000       2.35080000      -0.88590000
H        1.28360000       2.58800000       0.83800000
H        2.40290000       0.33010000       1.21140000
H        2.51400000       0.11330000      -0.52770000
H        3.95750000       2.33110000       1.07090000
H        6.00750000       1.39690000      -0.04750000
H        4.98210000       0.12320000      -0.88970000
H       -2.97740000       3.28130000      -0.46570000
