16
Properties=species:S:1:pos:R:3 gdb_127848=T pbc="F F F"
C       -0.08420000       1.46800000      -0.13620000
N        0.00650000       0.02440000      -0.01440000
C        0.58010000      -0.57030000       0.96880000
C        0.62140000      -2.02290000       1.00470000
C        1.21390000      -2.68990000       2.01990000
N        1.79450000      -2.01390000       3.04740000
N        1.81720000      -0.66230000       3.11960000
C        1.25770000       0.00560000       2.16200000
O        1.29970000       1.35130000       2.26730000
H        0.89760000       1.95540000      -0.18540000
H       -0.62020000       1.69770000      -1.06220000
H       -0.63030000       1.93380000       0.69370000
H        0.15830000      -2.55550000       0.18520000
H        1.26560000      -3.77020000       2.08320000
H        2.24280000      -2.47830000       3.81670000
H        1.76980000       1.54830000       3.09030000
