17
Properties=species:S:1:pos:R:3 gdb_72304=T pbc="F F F"
C       -0.18070000       1.59400000      -0.07220000
C       -0.08660000       0.10490000       0.04610000
C       -0.07130000      -1.02350000      -0.91820000
N        1.40910000      -1.45240000      -0.67160000
C        1.03770000      -0.83770000       0.61450000
N        0.76230000      -1.62760000       1.57620000
C       -0.70630000      -1.51970000       1.72880000
C       -1.09560000      -0.93490000       0.34920000
O       -2.41720000      -0.69340000       0.02500000
H        0.66620000       2.00800000      -0.63020000
H       -1.10140000       1.87060000      -0.59490000
H       -0.19760000       2.07040000       0.91360000
H       -0.47360000      -1.09370000      -1.92510000
H        1.92400000      -0.77890000      -1.25100000
H       -1.07620000      -2.53450000       1.91700000
H       -1.07680000      -0.87130000       2.53660000
H       -2.87000000      -1.53920000      -0.06890000
