14
Properties=species:S:1:pos:R:3 gdb_12294=T pbc="F F F"
O        0.00370000      -0.01060000      -0.24290000
C       -0.03110000       1.17830000      -0.05800000
C       -1.31230000       1.98390000       0.05320000
C       -1.27470000       2.99890000       1.20940000
C        0.03260000       3.73070000       1.29620000
C        1.17930000       3.29220000       0.75590000
C        1.28180000       2.00090000       0.05310000
O        2.31860000       1.56650000      -0.39690000
H       -1.41110000       2.53920000      -0.89080000
H       -2.16090000       1.30000000       0.12630000
H       -2.09540000       3.71750000       1.10710000
H       -1.45460000       2.48700000       2.16600000
H        0.03030000       4.66810000       1.84850000
H        2.10530000       3.85140000       0.85000000
