22
Properties=species:S:1:pos:R:3 gdb_83951=T pbc="F F F"
C       -0.24980000       1.55650000       0.32210000
C        0.05290000       0.07120000       0.20360000
C        1.16120000      -0.47490000      -0.74220000
C        2.39970000       0.41250000      -0.67470000
O        2.71680000       0.81680000       0.65830000
C        2.06090000       0.15100000       1.73880000
C        0.87750000      -0.69390000       1.27860000
N        1.27030000      -1.62750000       0.19040000
C        2.48730000      -2.41320000       0.27630000
H        0.64710000       2.15050000       0.51210000
H       -0.71510000       1.92830000      -0.59760000
H       -0.95810000       1.74020000       1.13760000
H       -0.86340000      -0.49270000       0.01380000
H        0.91160000      -0.72640000      -1.77960000
H        3.26320000      -0.11090000      -1.11150000
H        2.24270000       1.32650000      -1.26260000
H        2.78800000      -0.47780000       2.27400000
H        1.72300000       0.92520000       2.44020000
H        0.36240000      -1.15030000       2.13200000
H        2.37760000      -3.15140000       1.07820000
H        2.62130000      -2.96430000      -0.66110000
H        3.41120000      -1.84320000       0.46710000
