18
Properties=species:S:1:pos:R:3 gdb_22586=T pbc="F F F"
C       -0.00440000       1.51680000      -0.05070000
C       -0.00350000      -0.00940000       0.00290000
O        0.61800000      -0.46340000      -1.19000000
C        0.88510000      -1.85480000      -1.19200000
C        1.82980000      -2.21550000      -0.06940000
C        1.57970000      -1.53170000       1.19360000
C        0.68600000      -0.53600000       1.23640000
N        2.71940000      -3.10570000      -0.31420000
O        3.51170000      -3.38830000       0.80670000
H        1.02120000       1.89600000      -0.04640000
H       -0.49720000       1.85480000      -0.96580000
H       -0.53820000       1.93200000       0.80910000
H       -1.05460000      -0.36050000       0.02100000
H       -0.05410000      -2.42460000      -1.08150000
H        1.32420000      -2.10180000      -2.16000000
H        2.10670000      -1.87030000       2.07650000
H        0.43070000      -0.05570000       2.17750000
H        4.10490000      -4.06690000       0.46840000
