16
Properties=species:S:1:pos:R:3 gdb_87302=T pbc="F F F"
C        0.01220000       1.50860000      -0.13140000
C        0.06880000       0.00990000       0.03440000
N        1.38060000      -0.63590000       0.01710000
C        0.59680000      -0.68780000       1.26240000
C        1.18130000       0.06670000       2.45550000
C        2.28480000      -0.65930000       3.08520000
N        3.15660000      -1.23200000       3.58050000
C       -0.05470000      -1.93580000       1.60040000
N       -0.57790000      -2.93360000       1.86200000
H        0.88890000       1.99970000       0.29520000
H       -0.01390000       1.75560000      -1.19740000
H       -0.89040000       1.91950000       0.33140000
H       -0.74800000      -0.52440000      -0.44820000
H        1.36730000      -1.53140000      -0.46370000
H        1.55230000       1.03750000       2.12030000
H        0.40130000       0.24800000       3.20270000
