21
Properties=species:S:1:pos:R:3 gdb_98669=T pbc="F F F"
C       -0.39430000       1.43640000       0.18970000
O       -0.32660000       0.00910000       0.29520000
C        0.84300000      -0.47930000       0.76040000
O        1.77720000       0.22050000       1.07070000
C        0.83180000      -1.98210000       0.84070000
C        2.03330000      -2.72180000       0.17760000
C        2.09750000      -3.66730000       1.40850000
C        3.45540000      -4.09620000       1.94020000
C        1.27850000      -2.60840000       2.19670000
H        0.37250000       1.80990000      -0.49390000
H       -1.38990000       1.65970000      -0.19430000
H       -0.24700000       1.90330000       1.16690000
H       -0.12930000      -2.37130000       0.50330000
H        1.86820000      -3.16160000      -0.80870000
H        2.90390000      -2.06070000       0.13940000
H        1.47350000      -4.54970000       1.22480000
H        4.09400000      -3.22630000       2.13000000
H        3.35720000      -4.65070000       2.88030000
H        3.97580000      -4.74390000       1.22560000
H        1.93550000      -1.91520000       2.72990000
H        0.49240000      -2.95490000       2.87150000
