13
Properties=species:S:1:pos:R:3 gdb_131222=T pbc="F F F"
O        0.08120000       1.31310000       0.21980000
C        0.06880000      -0.01810000      -0.00040000
C        0.08380000      -0.75450000      -1.17290000
C        0.05730000      -2.10960000      -0.72600000
C        0.02820000      -2.12780000       0.66090000
N        0.03520000      -0.82270000       1.11420000
N        0.00200000      -3.38200000       1.14680000
N        0.01330000      -4.19100000       0.11520000
N        0.04670000      -3.43050000      -1.02640000
H        0.10450000       1.76800000      -0.62800000
H        0.10970000      -0.35590000      -2.17350000
H        0.02020000      -0.48960000       2.06190000
H        0.05920000      -3.90360000      -1.91350000
