18
Properties=species:S:1:pos:R:3 gdb_82782=T pbc="F F F"
C       -0.24750000       1.57760000      -0.06630000
C        0.02570000       0.08970000      -0.02190000
C        1.11940000      -0.53170000      -0.92610000
O        2.21610000       0.36310000      -1.05590000
C        2.87050000       0.34520000       0.18870000
C        2.82570000      -0.99790000       0.84420000
C        2.04710000       0.17240000       1.45400000
N        0.73010000      -0.47510000       1.19450000
C        1.47070000      -1.45810000       0.30710000
H        0.68000000       2.15390000      -0.04710000
H       -0.78610000       1.84210000      -0.98220000
H       -0.86540000       1.87490000       0.78740000
H       -0.90920000      -0.47580000      -0.11840000
H        0.86840000      -0.92900000      -1.91230000
H        3.75820000       0.96500000       0.21300000
H        3.65840000      -1.59020000       1.19540000
H        2.21800000       0.74320000       2.36070000
H        1.15380000      -2.49950000       0.32050000
