22
Properties=species:S:1:pos:R:3 gdb_6534=T pbc="F F F"
C        0.02790000       1.51270000      -0.30320000
C       -0.04030000       0.07200000       0.22170000
C       -1.43440000      -0.54260000       0.15050000
C       -2.47840000       0.18140000       0.98560000
C       -1.88860000      -1.12840000      -1.18250000
C       -1.58720000      -2.04110000      -0.01300000
C       -0.41550000      -2.99920000      -0.05550000
O       -2.69120000      -2.58860000       0.67230000
H        1.05850000       1.88100000      -0.28980000
H       -0.33660000       1.57160000      -1.33450000
H       -0.57380000       2.19690000       0.30200000
H        0.66800000      -0.53560000      -0.34970000
H        0.30890000       0.04820000       1.26310000
H       -2.66390000       1.18760000       0.59630000
H       -3.42190000      -0.36400000       0.99540000
H       -2.14210000       0.28290000       2.02440000
H       -2.93120000      -1.00310000      -1.45720000
H       -1.19460000      -1.11090000      -2.01800000
H        0.43340000      -2.60360000      -0.61610000
H       -0.08110000      -3.24780000       0.95700000
H       -0.71860000      -3.93350000      -0.54530000
H       -3.03210000      -3.31500000       0.13880000
