21
Properties=species:S:1:pos:R:3 gdb_61240=T pbc="F F F"
C        1.82370000       3.06430000      -1.05780000
C        1.13750000       1.73870000      -0.71660000
C       -0.39770000       1.93030000      -0.78890000
C       -1.16790000       0.76360000      -0.36810000
N       -1.77660000      -0.15560000      -0.02060000
N        1.52390000       0.72930000      -1.69510000
C        2.89240000       0.22040000      -1.68350000
C        1.75670000      -0.67670000      -1.32910000
C        1.62470000      -1.23180000       0.07260000
H        2.91000000       2.96310000      -0.99320000
H        1.57280000       3.37150000      -2.07790000
H        1.51560000       3.85450000      -0.36650000
H        1.40100000       1.46110000       0.31600000
H       -0.69280000       2.77750000      -0.16020000
H       -0.66760000       2.17260000      -1.82240000
H        3.38850000       0.16520000      -2.64930000
H        3.54250000       0.51710000      -0.86010000
H        1.39460000      -1.35550000      -2.09960000
H        2.06600000      -0.57520000       0.82750000
H        0.57820000      -1.40780000       0.33550000
H        2.15360000      -2.18950000       0.12750000
