19
Properties=species:S:1:pos:R:3 gdb_40249=T pbc="F F F"
C        0.05070000       1.49830000      -0.02520000
N        1.27020000       0.67020000       0.04920000
C       -0.05120000       0.02020000       0.00490000
C       -0.45000000      -0.71660000       1.27000000
O       -0.02360000      -2.06830000       1.21220000
C       -0.72090000      -2.82720000       0.24060000
C       -0.77680000      -2.16230000      -1.13110000
N       -1.84620000      -1.16150000      -1.31300000
C       -0.44360000      -0.71570000      -1.24040000
H       -0.16120000       2.07940000       0.86890000
H       -0.18790000       2.00590000      -0.95700000
H        1.71970000       0.62560000      -0.86340000
H        0.05320000      -0.26610000       2.12820000
H       -1.54000000      -0.65760000       1.41200000
H       -0.18670000      -3.77960000       0.17280000
H       -1.75040000      -3.03050000       0.57670000
H       -0.53720000      -2.80110000      -1.97760000
H       -2.16670000      -1.15210000      -2.27750000
H        0.02800000      -0.36290000      -2.15730000
