19
Properties=species:S:1:pos:R:3 gdb_10614=T pbc="F F F"
C       -0.28520000       1.40520000       0.21500000
N       -0.02840000      -0.03200000       0.25380000
C        1.28560000      -0.49640000      -0.18170000
C        0.90020000      -0.57970000       1.25610000
C        1.55330000       0.32100000       2.29150000
O        0.62780000       0.77450000       3.26580000
C        0.39980000      -1.90140000       1.80900000
O       -0.68690000      -1.69780000       2.71730000
H        0.62030000       2.02760000       0.25550000
H       -0.81080000       1.63740000      -0.71650000
H       -0.92080000       1.68190000       1.05970000
H        1.30390000      -1.38790000      -0.80480000
H        2.02220000       0.25880000      -0.45430000
H        2.38760000      -0.23180000       2.75620000
H        1.98610000       1.21170000       1.82770000
H        0.09620000       0.00490000       3.51590000
H        0.09540000      -2.56090000       0.98630000
H        1.18150000      -2.40770000       2.38530000
H       -1.38470000      -1.27920000       2.19740000
