16
Properties=species:S:1:pos:R:3 gdb_43150=T pbc="F F F"
O        0.00580000       0.00960000       0.12770000
C       -0.01120000       1.20240000       0.04260000
C       -1.15490000       2.22990000      -0.01450000
O       -0.83050000       3.01070000       1.14950000
C        0.62590000       3.10350000       1.19970000
C        1.09580000       2.26860000      -0.00040000
N        0.74910000       3.09710000      -1.18910000
C        0.06710000       2.37890000      -2.28120000
C       -0.75050000       3.04480000      -1.23240000
H       -2.17670000       1.86620000       0.05920000
H        0.92860000       4.15110000       1.10610000
H        0.97570000       2.69680000       2.15440000
H        2.13000000       1.93160000       0.00900000
H        0.16890000       2.86520000      -3.24580000
H        0.10710000       1.29260000      -2.32170000
H       -1.26190000       3.98330000      -1.42290000
