19
Properties=species:S:1:pos:R:3 gdb_87370=T pbc="F F F"
C        0.03770000       1.63310000      -0.05010000
C        0.05550000       0.11250000       0.01010000
N        1.10360000      -0.53950000      -0.79380000
C        1.74280000      -1.17860000       0.24820000
O        2.70080000      -1.89920000       0.30770000
C        0.73770000      -0.56780000       1.22890000
C        0.94530000      -0.04660000       2.60380000
N        0.16000000      -1.25250000       2.36460000
C       -1.28120000      -1.15700000       2.55390000
H        1.02050000       2.04330000       0.19980000
H       -0.23700000       1.98180000      -1.05170000
H       -0.69800000       2.03870000       0.65190000
H       -0.94180000      -0.29390000      -0.20020000
H        1.30270000      -0.50770000      -1.78180000
H        1.90120000      -0.19160000       3.09940000
H        0.41450000       0.86780000       2.87020000
H       -1.70200000      -0.17110000       2.29550000
H       -1.77840000      -1.91620000       1.94230000
H       -1.51150000      -1.36150000       3.60370000
