17
Properties=species:S:1:pos:R:3 gdb_131854=T pbc="F F F"
O       -0.04120000       1.40460000      -0.21140000
C       -0.01030000       0.00740000       0.05710000
C       -1.44900000      -0.48170000       0.04480000
N       -2.04290000      -0.21590000      -1.25480000
C       -3.38290000      -0.53680000      -1.42770000
C       -4.21020000      -1.31690000      -0.67260000
O       -5.42610000      -1.41220000      -1.26060000
N       -5.42440000      -0.67160000      -2.42440000
C       -4.22170000      -0.16290000      -2.52170000
H        0.85800000       1.70770000      -0.36440000
H        0.56350000      -0.53030000      -0.71130000
H        0.43980000      -0.20420000       1.03800000
H       -1.45990000      -1.56230000       0.23330000
H       -2.00640000       0.00230000       0.86510000
H       -1.80550000       0.71640000      -1.56910000
H       -4.09110000      -1.85490000       0.25260000
H       -3.97470000       0.46120000      -3.36940000
