18
Properties=species:S:1:pos:R:3 gdb_84049=T pbc="F F F"
C       -0.17970000       1.58970000       0.05040000
C        0.03210000       0.06790000       0.01130000
C        0.82550000      -0.41800000      -1.18280000
C        1.82180000      -1.24710000      -0.83070000
C        2.71800000      -1.89040000      -1.72810000
N        3.45520000      -2.43450000      -2.43720000
C        1.91460000      -1.39990000       0.65800000
C        2.25070000      -0.12030000       1.39520000
C        0.80810000      -0.51330000       1.20020000
H        0.77470000       2.12190000       0.09940000
H       -0.71460000       1.93480000      -0.84010000
H       -0.77030000       1.87180000       0.92710000
H       -0.96320000      -0.40090000      -0.02560000
H        0.60970000      -0.10950000      -2.19920000
H        2.17750000      -2.35970000       1.08560000
H        2.64980000      -0.21680000       2.39910000
H        2.66850000       0.69920000       0.82010000
H        0.24700000      -0.81320000       2.07710000
