19
Properties=species:S:1:pos:R:3 gdb_119667=T pbc="F F F"
C       -0.50750000       1.31310000      -0.43520000
O       -0.74370000      -0.06240000      -0.62730000
C       -0.82770000      -0.77930000       0.58310000
C       -1.08010000      -2.22040000       0.25390000
O       -1.20500000      -3.16150000       1.36400000
C       -1.37810000      -3.97270000       0.16150000
C       -2.19500000      -2.89420000      -0.61420000
C       -1.27360000      -2.99130000      -1.84990000
C       -0.30030000      -3.21360000      -0.67150000
H       -0.45970000       1.77630000      -1.42330000
H       -1.31530000       1.78790000       0.14320000
H        0.44330000       1.49330000       0.09020000
H        0.10550000      -0.69380000       1.16510000
H       -1.64590000      -0.39940000       1.21800000
H       -1.55500000      -5.04180000       0.27240000
H       -3.26790000      -2.71500000      -0.54410000
H       -1.43800000      -3.84920000      -2.50800000
H       -1.13650000      -2.07500000      -2.42480000
H        0.77430000      -3.39620000      -0.66620000
