21
Properties=species:S:1:pos:R:3 gdb_113327=T pbc="F F F"
C       -0.26030000       1.57220000       0.31040000
C        0.19340000       0.17450000      -0.10450000
N        0.75860000      -0.51910000       1.05200000
C       -0.09510000      -1.37610000       1.84970000
C        1.00340000      -1.96780000       1.00900000
C        0.66440000      -2.84310000      -0.19460000
C        0.51510000      -4.32410000       0.17300000
C        2.23890000      -2.34760000       1.67530000
N        3.21860000      -2.68110000       2.19110000
H        0.57470000       2.13740000       0.73220000
H       -0.65510000       2.11750000      -0.55200000
H       -1.04970000       1.51770000       1.06710000
H       -0.65330000      -0.36630000      -0.55590000
H        0.97860000       0.24400000      -0.86550000
H        0.01140000      -1.30160000       2.92800000
H       -1.10860000      -1.56930000       1.49590000
H       -0.26370000      -2.48170000      -0.64480000
H        1.45110000      -2.72610000      -0.94940000
H       -0.29620000      -4.47180000       0.89310000
H        0.29030000      -4.91840000      -0.71710000
H        1.43440000      -4.71630000       0.61740000
