19
Properties=species:S:1:pos:R:3 gdb_111276=T pbc="F F F"
C       -0.18630000       1.48510000       0.00900000
C        0.12690000       0.02540000      -0.02120000
O       -0.73950000      -0.86780000       0.69630000
C        0.66140000      -0.91250000       0.98920000
C        1.30720000      -1.81360000      -0.07530000
C        0.76400000      -3.22530000      -0.19730000
O        1.15690000      -3.70940000      -1.49130000
C        0.78340000      -0.78410000      -1.15420000
O       -0.07880000      -1.24360000      -2.15580000
H        0.67570000       2.07350000      -0.32120000
H       -1.02390000       1.70990000      -0.66020000
H       -0.46180000       1.79890000       1.01940000
H        0.96340000      -0.74050000       2.01680000
H        2.39940000      -1.82020000      -0.03030000
H        1.17070000      -3.87070000       0.59480000
H       -0.32720000      -3.20110000      -0.10560000
H        0.74350000      -4.56730000      -1.62860000
H        1.63210000      -0.21910000      -1.57120000
H        0.25700000      -2.11260000      -2.41820000
