25
Properties=species:S:1:pos:R:3 gdb_115275=T pbc="F F F"
C       -0.20800000       1.51480000      -0.03290000
C       -0.09480000      -0.01060000      -0.07050000
C        0.79880000      -0.51810000      -1.20260000
C        0.93080000      -2.05400000      -1.26160000
C        0.86050000      -2.38790000      -2.76970000
C        2.23820000      -2.21890000      -3.43310000
C        0.29910000      -3.78420000      -3.04900000
C       -0.08890000      -1.26500000      -3.22790000
O        0.27390000      -0.11410000      -2.48070000
H        0.76970000       1.97920000       0.13900000
H       -0.59410000       1.89090000      -0.98400000
H       -0.87870000       1.84430000       0.76640000
H        0.30790000      -0.38500000       0.88030000
H       -1.09030000      -0.45860000      -0.18690000
H        1.78810000      -0.04720000      -1.10680000
H        1.85180000      -2.40980000      -0.79150000
H        0.09040000      -2.52280000      -0.73630000
H        2.96680000      -2.91820000      -3.00880000
H        2.17900000      -2.41190000      -4.50990000
H        2.62200000      -1.20340000      -3.29780000
H       -0.68540000      -3.91870000      -2.58800000
H        0.19260000      -3.96010000      -4.12560000
H        0.96270000      -4.56160000      -2.65500000
H        0.00600000      -1.02160000      -4.29170000
H       -1.13770000      -1.54750000      -3.03560000
