15
Properties=species:S:1:pos:R:3 gdb_133070=T pbc="F F F"
C       -0.01500000       1.53490000       0.00720000
C        0.01830000      -0.00540000      -0.01300000
C        0.71310000      -0.51220000      -1.24260000
N       -0.02170000      -0.71270000      -2.34660000
C        0.66450000      -1.13170000      -3.40580000
N        1.97840000      -1.35970000      -3.45530000
C        2.58050000      -1.11800000      -2.30380000
F        3.87830000      -1.31870000      -2.27970000
N        2.03870000      -0.70250000      -1.17550000
H        0.99900000       1.94530000       0.00220000
H       -0.54950000       1.92320000      -0.86460000
H       -0.52370000       1.88990000       0.90730000
H        0.55150000      -0.37640000       0.86600000
H       -1.00190000      -0.39750000      -0.00570000
H        0.10550000      -1.30980000      -4.32150000
