14
Properties=species:S:1:pos:R:3 gdb_4996=T pbc="F F F"
C       -0.02350000       1.51690000       0.00490000
C       -0.00600000       0.01880000      -0.02030000
C       -0.05630000      -0.72580000      -1.16090000
N       -0.04260000      -2.09940000      -1.22290000
C        0.02440000      -2.70990000      -0.08390000
N        0.07940000      -2.07270000       1.11250000
C        0.06970000      -0.66980000       1.26020000
O        0.12150000      -0.16250000       2.36600000
H        0.87410000       1.90720000       0.49640000
H       -0.08090000       1.92900000      -1.00550000
H       -0.87520000       1.88530000       0.58680000
H       -0.11330000      -0.22830000      -2.12620000
H        0.04030000      -3.79630000      -0.04730000
H        0.13150000      -2.59780000       1.97600000
