16
Properties=species:S:1:pos:R:3 gdb_15800=T pbc="F F F"
O        0.19750000       1.66820000      -0.04600000
C        0.10200000       0.25520000       0.07050000
C        0.62830000      -0.45690000      -1.18360000
C       -0.08700000       0.01900000      -2.42950000
O        0.46060000       0.44510000      -3.41210000
C        0.80380000      -0.23950000       1.32030000
C        0.08260000      -0.45170000       2.57760000
O        0.45780000      -1.55660000       1.74630000
H        1.09370000       1.89220000      -0.32160000
H       -0.96900000       0.04490000       0.17750000
H        1.70510000      -0.29450000      -1.31130000
H        0.45710000      -1.53520000      -1.06500000
H       -1.19780000      -0.05620000      -2.37560000
H        1.87260000      -0.01440000       1.36640000
H        0.61340000      -0.38160000       3.52520000
H       -0.98500000      -0.24260000       2.62290000
