15
Properties=species:S:1:pos:R:3 gdb_19869=T pbc="F F F"
C        0.20800000       1.27370000       0.32710000
O        1.31800000       1.87990000      -0.32390000
C        2.03250000       0.87030000      -0.99010000
C        3.09120000       0.04150000      -0.22910000
N        2.45520000      -0.41600000       1.02460000
C        2.18930000      -1.15710000      -0.22680000
C        1.09820000      -0.37110000      -0.98760000
O       -0.06840000       0.03760000      -0.32020000
H        0.43800000       1.10270000       1.38350000
H       -0.66340000       1.92920000       0.21070000
H        2.37280000       1.23720000      -1.96060000
H        4.16850000       0.09930000      -0.32130000
H        3.15570000      -0.94210000       1.54510000
H        2.43190000      -2.20850000      -0.31670000
H        0.83810000      -0.80220000      -1.95650000
