19
Properties=species:S:1:pos:R:3 gdb_77986=T pbc="F F F"
C       -0.76920000       1.23790000      -0.34910000
C       -0.39950000      -0.21620000      -0.54610000
C        0.54100000      -0.80650000      -1.58010000
C        1.82190000       0.00510000      -1.76100000
C        1.86590000       1.31140000      -2.52770000
O        1.98040000       0.13830000      -0.31480000
C        0.91270000      -0.80020000      -0.09160000
C        1.09100000      -1.83750000       0.86250000
C        1.23160000      -2.71100000       1.67830000
H       -1.35450000       1.62160000      -1.19130000
H       -1.37480000       1.34860000       0.55620000
H        0.12280000       1.85500000      -0.23070000
H       -1.21610000      -0.91250000      -0.36370000
H        0.25520000      -1.64970000      -2.19500000
H        2.61880000      -0.65800000      -2.12540000
H        2.81920000       1.81810000      -2.34480000
H        1.79560000       1.10730000      -3.60170000
H        1.05550000       1.98690000      -2.25180000
H        1.36120000      -3.48140000       2.39740000
