16
Properties=species:S:1:pos:R:3 gdb_31297=T pbc="F F F"
C       -0.07690000       1.46420000      -0.08180000
N        0.22620000       0.05180000       0.07930000
C        0.69500000      -0.67110000      -0.99140000
C        0.68540000      -2.05810000      -1.14200000
N        1.33360000      -2.26740000      -2.36310000
C        1.66990000      -1.05860000      -2.85690000
N        1.30020000      -0.07150000      -2.06140000
C        0.17590000      -3.07500000      -0.32900000
C       -0.28160000      -3.93420000       0.38720000
H        0.79580000       1.97500000      -0.49230000
H       -0.92570000       1.65610000      -0.75540000
H       -0.30320000       1.88940000       0.89910000
H       -0.41250000      -0.46400000       0.66580000
H        1.50120000      -3.16610000      -2.78240000
H        2.18140000      -0.93990000      -3.80030000
H       -0.66840000      -4.69050000       1.02340000
