15
Properties=species:S:1:pos:R:3 gdb_25860=T pbc="F F F"
N        0.07890000       1.35770000       0.16520000
C       -0.05580000       0.01100000       0.01720000
N        1.04680000      -0.74080000      -0.12230000
H        1.95230000      -0.40430000       0.15780000
H        0.84240000      -1.73820000      -0.09610000
C       -1.28050000      -0.68010000       0.03130000
C       -2.57560000      -0.16510000       0.00920000
N       -3.37260000      -1.24150000       0.01290000
C       -2.55720000      -2.47300000       0.02890000
O       -3.07900000      -3.57250000       0.02910000
N       -1.27130000      -2.05820000       0.04080000
H        0.87740000       1.80160000      -0.26270000
H       -0.76450000       1.90700000       0.14460000
H       -2.95100000       0.84760000      -0.02250000
H       -4.38030000      -1.24850000       0.00240000
