21
Properties=species:S:1:pos:R:3 gdb_110414=T pbc="F F F"
C       -0.07470000       1.55860000       0.05350000
C       -0.04290000       0.03160000      -0.08100000
C       -1.42690000      -0.60780000       0.00400000
C       -1.41900000      -2.13810000       0.07690000
C       -1.38420000      -2.12010000       1.60790000
C       -2.02750000      -0.69500000       1.43850000
O       -3.34030000      -1.28360000       1.22290000
C       -2.65270000      -2.50730000       0.92530000
C       -3.43190000      -3.77480000       0.84660000
H        0.93040000       1.98350000      -0.02840000
H       -0.69260000       2.01110000      -0.72970000
H       -0.48760000       1.87030000       1.01880000
H        0.41450000      -0.23720000      -1.04180000
H        0.60510000      -0.39940000       0.69340000
H       -2.10850000      -0.15470000      -0.72720000
H       -0.94220000      -2.84360000      -0.59350000
H       -0.75200000      -2.59590000       2.34480000
H       -2.03160000       0.13710000       2.14010000
H       -4.15350000      -3.73590000       0.02360000
H       -2.76150000      -4.62160000       0.67160000
H       -3.98060000      -3.95410000       1.77650000
