22
Properties=species:S:1:pos:R:3 gdb_60069=T pbc="F F F"
C        0.78630000      -0.38110000      -1.28310000
C       -0.17590000      -0.32900000      -0.08870000
C       -1.29230000      -1.37120000      -0.23880000
C        0.61280000      -0.48570000       1.22560000
C       -0.19540000      -0.30310000       2.50900000
C       -0.82680000      -1.50870000       3.19450000
C        0.36900000      -0.85200000       3.81300000
C       -0.91680000       0.94280000       2.60490000
N       -1.49050000       1.94610000       2.66740000
H        1.28610000      -1.35560000      -1.34420000
H        0.25080000      -0.22500000      -2.22480000
H        1.56250000       0.38760000      -1.20750000
H       -0.64210000       0.66540000      -0.07480000
H       -0.88360000      -2.38940000      -0.23840000
H       -2.02700000      -1.30220000       0.56780000
H       -1.82540000      -1.23130000      -1.18460000
H        1.07460000      -1.48130000       1.26030000
H        1.43690000       0.23860000       1.23150000
H       -1.79080000      -1.37330000       3.67010000
H       -0.69520000      -2.46300000       2.69810000
H        1.33000000      -1.34960000       3.74390000
H        0.22540000      -0.26380000       4.71130000
