23
Properties=species:S:1:pos:R:3 gdb_58510=T pbc="F F F"
C        0.05360000       1.53560000      -0.06700000
C        0.05700000       0.00650000       0.08540000
C        0.74780000      -0.42350000       1.38600000
C       -1.36490000      -0.57320000      -0.00320000
O       -2.19090000      -0.08490000       1.04800000
C       -2.10670000      -0.51390000      -1.39210000
C       -2.30150000      -2.03390000      -1.32890000
C       -0.96810000      -2.71890000      -1.26110000
C       -1.53180000      -2.09990000      -0.01120000
H        1.07600000       1.92380000      -0.10710000
H       -0.45810000       1.85420000      -0.98180000
H       -0.43580000       2.02240000       0.78540000
H        0.62370000      -0.40520000      -0.75940000
H        1.75780000      -0.00640000       1.45200000
H        0.17610000      -0.08130000       2.25380000
H        0.82980000      -1.51320000       1.44810000
H       -2.29650000       0.86450000       0.92480000
H       -3.03920000       0.04690000      -1.29910000
H       -1.54080000      -0.13890000      -2.25240000
H       -3.20340000      -2.56150000      -1.61280000
H       -0.99730000      -3.80380000      -1.28050000
H       -0.10150000      -2.29550000      -1.76320000
H       -1.74500000      -2.67640000       0.88030000
