19
Properties=species:S:1:pos:R:3 gdb_116264=T pbc="F F F"
O        0.27900000       1.29910000       0.13640000
C        0.06170000      -0.08670000      -0.06370000
C       -1.42730000      -0.45630000      -0.06630000
C       -1.67970000      -1.97910000      -0.23640000
C       -2.41610000      -2.40420000       1.05470000
N       -3.11700000      -1.21160000       1.55390000
C       -2.21710000      -0.09080000       1.25030000
C       -1.31280000       0.14100000       2.39220000
N       -0.57010000       0.34700000       3.25450000
H        0.33720000       1.45290000       1.08530000
H        0.48410000      -0.33830000      -1.04290000
H        0.59630000      -0.68910000       0.68440000
H       -1.89920000       0.10280000      -0.87890000
H       -2.30310000      -2.16860000      -1.11500000
H       -0.74620000      -2.53360000      -0.37750000
H       -3.12240000      -3.22440000       0.90930000
H       -1.69590000      -2.72250000       1.81760000
H       -3.97480000      -1.07700000       1.02800000
H       -2.79540000       0.82760000       1.12160000
