17
Properties=species:S:1:pos:R:3 gdb_43108=T pbc="F F F"
O       -0.02350000      -0.00730000      -0.08350000
C       -0.04860000       1.18560000       0.00900000
C       -1.17240000       2.22640000       0.01020000
C       -1.54020000       2.70160000       1.44930000
C       -0.30590000       3.65220000       1.45780000
O        0.78990000       3.17830000       2.22520000
C        1.73630000       2.48620000       1.41090000
C        1.06600000       2.26140000       0.05380000
C       -0.04930000       3.33720000      -0.04070000
H       -1.97980000       2.09260000      -0.70960000
H       -2.48020000       3.25900000       1.44210000
H       -1.57420000       1.94900000       2.24000000
H       -0.51060000       4.68700000       1.74270000
H        2.64630000       3.09310000       1.30100000
H        2.01020000       1.54560000       1.90180000
H        1.77690000       2.17850000      -0.77130000
H        0.01030000       4.12940000      -0.78210000
