15
Properties=species:S:1:pos:R:3 gdb_13916=T pbc="F F F"
N        0.14340000       1.23280000      -0.17340000
C        0.07400000       0.00260000       0.04760000
O        1.02280000      -0.90400000       0.47790000
C        0.07570000      -2.01580000       0.39320000
C       -1.04090000      -1.03670000      -0.02030000
C       -2.37070000      -0.83340000       0.73010000
C       -3.00690000      -0.98630000      -0.66560000
O       -1.71190000      -1.25250000      -1.25890000
H        1.08450000       1.59630000      -0.01290000
H        0.35930000      -2.72240000      -0.39040000
H       -0.03290000      -2.51750000       1.35810000
H       -2.61350000      -1.62430000       1.44190000
H       -2.48320000       0.14120000       1.20480000
H       -3.69380000      -1.82800000      -0.80250000
H       -3.45670000      -0.07670000      -1.07630000
