21
Properties=species:S:1:pos:R:3 gdb_87780=T pbc="F F F"
C       -0.22960000       1.38540000      -0.04880000
N        0.01690000      -0.04520000       0.05140000
C        1.39260000      -0.50370000      -0.15930000
C        0.77050000      -0.52480000       1.18760000
C        1.28820000       0.23050000       2.44490000
C        0.92360000      -1.02650000       3.26230000
C        1.64810000      -1.55100000       4.46160000
N       -0.54000000      -1.18630000       3.08200000
C        0.39700000      -1.71160000       2.04400000
H        0.60880000       2.00800000       0.30570000
H       -0.42630000       1.64340000      -1.09440000
H       -1.11670000       1.63780000       0.53990000
H        1.50470000      -1.41390000      -0.74440000
H        2.16500000       0.24630000      -0.33360000
H        2.36180000       0.43330000       2.41070000
H        0.74780000       1.13560000       2.73380000
H        1.46740000      -0.92130000       5.34110000
H        1.32060000      -2.56760000       4.70610000
H        2.72960000      -1.57850000       4.28970000
H       -0.82140000      -1.98970000       3.64620000
H        0.39050000      -2.76010000       1.76980000
