16
Properties=species:S:1:pos:R:3 gdb_49264=T pbc="F F F"
O       -0.13490000      -0.04470000       0.08060000
C       -0.06540000       1.17010000       0.09140000
C        1.16540000       1.92580000      -0.01250000
C        1.11630000       3.27980000       0.01710000
N        2.20110000       4.08860000      -0.07370000
C        3.55040000       3.56280000       0.05850000
C        3.67840000       2.09060000      -0.36020000
O        4.74110000       1.68320000      -0.75940000
C        2.46890000       1.18990000      -0.18120000
H       -0.98430000       1.79540000       0.18870000
H        0.16120000       3.79170000       0.09630000
H        2.07530000       5.07500000       0.07990000
H        4.24900000       4.14380000      -0.54770000
H        3.89660000       3.61730000       1.10450000
H        2.66580000       0.53910000       0.68340000
H        2.43160000       0.50400000      -1.03460000
