19
Properties=species:S:1:pos:R:3 gdb_12091=T pbc="F F F"
C       -0.87550000       1.30580000       0.50590000
C       -0.25840000      -0.05510000       0.28910000
N        1.03710000      -0.10920000      -0.41310000
C        0.96710000      -0.55470000       0.98150000
C        1.75720000       0.20260000       2.01860000
C        1.47180000      -0.20170000       3.44910000
C        3.06660000       0.76720000       1.65040000
O        1.92000000       1.60750000       1.80930000
H       -0.10550000       2.04640000       0.71870000
H       -1.42580000       1.61610000      -0.38920000
H       -1.58460000       1.28020000       1.34100000
H       -0.97570000      -0.83450000       0.02900000
H        1.07980000      -0.90730000      -1.04010000
H        0.99290000      -1.62980000       1.16480000
H        1.70100000      -1.26060000       3.61160000
H        2.07130000       0.39490000       4.14050000
H        0.41440000      -0.04720000       3.68910000
H        3.83810000       0.88510000       2.41050000
H        3.41360000       0.66200000       0.62490000
