17
Properties=species:S:1:pos:R:3 gdb_35381=T pbc="F F F"
C       -0.09160000      -1.21110000      -0.05010000
C       -0.05380000      -0.01110000       0.00020000
C        0.01270000       1.44580000       0.03390000
O       -0.46500000       1.97420000       1.29290000
C        0.66160000       2.68800000       1.76700000
C        1.34850000       3.46340000       0.60500000
C        2.71260000       3.24900000       1.29940000
C        1.97580000       1.90300000       1.48840000
C        1.43860000       2.01360000       0.02160000
H       -0.13510000      -2.27160000      -0.08750000
H       -0.59970000       1.86170000      -0.77720000
H        0.45040000       3.14830000       2.73130000
H        0.97670000       4.35110000       0.09220000
H        3.59070000       3.23390000       0.64950000
H        2.90430000       3.83780000       2.20100000
H        2.32360000       0.99830000       1.98570000
H        2.08210000       1.78710000      -0.82770000
