19
Properties=species:S:1:pos:R:3 gdb_55635=T pbc="F F F"
C       -0.04310000       1.54350000      -0.10910000
C       -0.01590000       0.03550000       0.08830000
O       -0.07510000      -0.47650000       1.19270000
N        0.05750000      -0.69090000      -1.06850000
C        0.04970000      -2.16560000      -1.12000000
C        1.27900000      -2.75470000      -0.39150000
C       -1.26470000      -2.73910000      -0.54340000
C        0.13290000      -2.51920000      -2.55050000
N        0.19730000      -2.79310000      -3.67110000
H        0.32350000       1.86400000      -1.08760000
H       -1.07180000       1.89800000       0.01030000
H        0.55930000       2.00570000       0.67470000
H        0.09740000      -0.20050000      -1.94650000
H        1.23060000      -2.47110000       0.65980000
H        1.27880000      -3.84410000      -0.47730000
H        2.20320000      -2.36880000      -0.82780000
H       -2.12590000      -2.34360000      -1.08710000
H       -1.26720000      -3.82860000      -0.62790000
H       -1.33860000      -2.45450000       0.50630000
