19
Properties=species:S:1:pos:R:3 gdb_26204=T pbc="F F F"
C        0.32360000       0.61490000       1.24230000
N       -0.16390000       0.25270000      -0.07800000
C        0.92340000      -0.05640000      -1.00640000
C       -1.22110000      -0.67070000      -0.07030000
C       -1.69070000      -1.53200000       0.90410000
C       -2.83680000      -2.18560000       0.35820000
O       -3.61650000      -3.13260000       0.96140000
C       -3.03490000      -1.72330000      -0.91680000
N       -2.02670000      -0.80110000      -1.16910000
H        1.01040000       1.46240000       1.15210000
H       -0.51630000       0.91080000       1.87500000
H        0.86630000      -0.20570000       1.74500000
H        1.54700000      -0.89990000      -0.66240000
H        0.51890000      -0.31490000      -1.98700000
H        1.56520000       0.82310000      -1.12090000
H       -1.25040000      -1.70240000       1.87450000
H       -3.27920000      -3.27820000       1.84930000
H       -3.77370000      -1.97900000      -1.65600000
H       -2.00990000      -0.16640000      -1.94750000
