18
Properties=species:S:1:pos:R:3 gdb_76282=T pbc="F F F"
C       -0.02050000       1.64880000       0.04890000
C        0.10310000       0.12790000      -0.05470000
N        0.93770000      -0.34620000      -1.14630000
C        0.53130000      -0.25680000      -2.53060000
C        1.87590000      -1.26340000      -0.72540000
N        2.64340000      -1.92880000      -1.49300000
N        1.78790000      -1.28160000       0.67960000
C        0.79100000      -0.47490000       1.17710000
O        0.52100000      -0.28150000       2.33700000
H        0.96860000       2.11480000       0.07650000
H       -0.57510000       2.05730000      -0.80010000
H       -0.55410000       1.90200000       0.96840000
H       -0.90750000      -0.31030000      -0.11540000
H        0.41200000       0.78880000      -2.83150000
H        1.30890000      -0.71760000      -3.13990000
H       -0.41810000      -0.78180000      -2.71160000
H        3.26860000      -2.53470000      -0.96940000
H        2.41840000      -1.80120000       1.26850000
