20
Properties=species:S:1:pos:R:3 gdb_6094=T pbc="F F F"
C        0.55230000       1.26300000      -0.30070000
C       -0.15900000      -0.02010000       0.13660000
C       -0.10460000      -1.10290000      -0.93460000
O        0.43300000      -0.58410000       1.30680000
C        0.17730000       0.10250000       2.50520000
C        0.62550000      -0.71760000       3.71800000
C        1.06530000      -2.14250000       3.47350000
O        0.60000000      -0.20870000       4.81400000
H        1.60730000       1.05870000      -0.50990000
H        0.09060000       1.66190000      -1.20930000
H        0.49770000       2.04110000       0.46590000
H       -1.21370000       0.21500000       0.36020000
H        0.93490000      -1.36300000      -1.15850000
H       -0.61770000      -2.00550000      -0.59290000
H       -0.58060000      -0.75780000      -1.85690000
H        0.68910000       1.07460000       2.56000000
H       -0.90120000       0.30410000       2.62920000
H        0.26050000      -2.70740000       2.99160000
H        1.90620000      -2.15890000       2.77320000
H        1.34350000      -2.60620000       4.42030000
