19
Properties=species:S:1:pos:R:3 gdb_111652=T pbc="F F F"
C        0.42520000       1.40760000      -0.19350000
C       -0.15190000       0.01690000       0.10510000
C        0.54390000      -0.64780000       1.27250000
C        0.70780000      -2.11240000       1.44650000
C        0.51070000      -3.03160000       0.25370000
O        1.46560000      -2.58150000      -0.71430000
C        2.25790000      -1.58970000      -0.18440000
N        3.20060000      -1.01950000      -0.79680000
N        1.89430000      -1.28520000       1.15440000
H        1.48000000       1.33550000      -0.47120000
H       -0.11670000       1.88420000      -1.01550000
H        0.34870000       2.06170000       0.68180000
H       -1.21680000       0.09980000       0.35890000
H       -0.09540000      -0.60800000      -0.79140000
H        0.48590000      -0.06990000       2.19330000
H        0.65900000      -2.55520000       2.43670000
H        0.72980000      -4.07150000       0.51860000
H       -0.48840000      -2.98590000      -0.19200000
H        3.29020000      -1.40530000      -1.73630000
