21
Properties=species:S:1:pos:R:3 gdb_91004=T pbc="F F F"
C        0.05350000       1.56340000       0.07260000
C        0.03780000       0.04730000      -0.02600000
C        0.74660000      -0.51110000      -1.26620000
C        1.09430000      -1.97890000      -1.03350000
C        0.26450000      -2.75630000       0.05060000
C        1.48330000      -3.70010000       0.20890000
C        2.09760000      -2.28030000       0.12430000
C        0.96670000      -1.82600000       1.09530000
O        0.63470000      -0.46650000       1.16580000
H        1.08320000       1.93290000       0.10580000
H       -0.44900000       2.00870000      -0.79180000
H       -0.45860000       1.89340000       0.98070000
H       -1.00820000      -0.30110000      -0.05480000
H        0.09140000      -0.39370000      -2.13710000
H        1.66270000       0.05750000      -1.47570000
H        1.28120000      -2.53000000      -1.96060000
H       -0.78750000      -3.04340000       0.00730000
H        1.57970000      -4.22650000       1.16300000
H        1.68670000      -4.36230000      -0.63610000
H        3.15260000      -2.00360000       0.16420000
H        1.03110000      -2.19660000       2.12220000
