16
Properties=species:S:1:pos:R:3 gdb_18237=T pbc="F F F"
C        0.11540000       1.40610000       0.09260000
N        0.20180000      -0.04550000       0.07760000
C        0.52140000      -0.63050000      -0.99020000
O        0.83220000      -0.01320000      -2.17970000
C        0.84650000      -0.95370000      -3.26790000
C        0.80020000      -2.32820000      -2.63190000
N        1.92420000      -2.52720000      -1.70660000
C        0.59570000      -2.10380000      -1.18150000
H        1.03230000       1.82480000       0.52590000
H       -0.02400000       1.85250000      -0.89900000
H       -0.71220000       1.70560000       0.74320000
H       -0.02970000      -0.77930000      -3.90390000
H        1.75750000      -0.78310000      -3.84860000
H        0.36470000      -3.16350000      -3.16780000
H        2.03230000      -3.52240000      -1.52140000
H        0.03110000      -2.75470000      -0.52790000
