23
Properties=species:S:1:pos:R:3 gdb_119625=T pbc="F F F"
O       -0.11920000       1.48630000      -0.33830000
C        0.00180000       0.07450000      -0.23550000
C       -1.37070000      -0.48500000       0.12820000
C       -1.39680000      -1.99360000       0.23590000
C       -1.56470000      -2.82570000      -1.01830000
C       -2.66550000      -2.79460000       0.01670000
C       -2.71330000      -3.92830000       1.03010000
C       -1.25390000      -4.07420000       1.52050000
C       -0.63910000      -2.66240000       1.38330000
H        0.74380000       1.84620000      -0.56190000
H        0.34020000      -0.36940000      -1.18560000
H        0.73830000      -0.20460000       0.53480000
H       -1.68770000      -0.03150000       1.07660000
H       -2.08490000      -0.15010000      -0.63340000
H       -1.74480000      -2.28550000      -1.94220000
H       -0.98110000      -3.73180000      -1.14910000
H       -3.59160000      -2.29270000      -0.24440000
H       -3.37100000      -3.64230000       1.86020000
H       -3.10630000      -4.86410000       0.61720000
H       -1.19120000      -4.45910000       2.54170000
H       -0.71260000      -4.78420000       0.88720000
H        0.44490000      -2.70120000       1.22740000
H       -0.80880000      -2.08040000       2.29900000
