17
Properties=species:S:1:pos:R:3 gdb_78510=T pbc="F F F"
O       -0.09120000       1.48080000      -0.08020000
C       -0.01080000       0.07280000      -0.09010000
C       -1.33590000      -0.65490000      -0.11800000
C       -1.74900000      -0.80460000      -1.61910000
O       -3.04780000      -1.09920000      -1.96310000
C       -0.68730000      -0.09140000      -2.45160000
C        0.33060000      -0.66630000      -1.42520000
C       -0.76340000      -1.74890000      -1.01160000
O       -0.76290000      -3.11300000      -0.93780000
H        0.80400000       1.83570000      -0.08630000
H        0.62480000      -0.29530000       0.72930000
H       -2.09040000      -0.75070000       0.65270000
H       -3.59190000      -0.32370000      -1.78540000
H       -0.57790000      -0.55770000      -3.43410000
H       -0.73100000       0.99840000      -2.53660000
H        1.36010000      -0.86880000      -1.71290000
H       -0.37220000      -3.38050000      -0.09850000
