15
Properties=species:S:1:pos:R:3 gdb_27003=T pbc="F F F"
N       -0.08650000       1.36370000      -0.35620000
C       -0.02570000      -0.01370000      -0.13870000
C       -1.05400000      -0.90830000      -0.01730000
C       -2.54420000      -0.80620000      -0.10090000
C       -2.96960000       0.18740000      -1.08970000
N       -3.26840000       1.00040000      -1.85500000
O       -0.56170000      -2.15730000       0.27760000
C        0.78450000      -2.04560000       0.33880000
C        1.17590000      -0.76980000       0.09510000
H        0.73310000       1.72270000      -0.82670000
H       -0.92180000       1.66780000      -0.84130000
H       -2.95350000      -1.78230000      -0.38530000
H       -3.00720000      -0.54390000       0.86200000
H        1.32250000      -2.95240000       0.56100000
H        2.18760000      -0.39440000       0.08170000
