21
Properties=species:S:1:pos:R:3 gdb_99899=T pbc="F F F"
C       -0.17060000       1.50920000       0.00870000
C       -0.03520000      -0.00920000      -0.11400000
C        0.79490000      -0.47940000      -1.33440000
O        0.22960000       0.02910000      -2.54860000
C        2.16310000       0.05210000      -1.25700000
C        3.29090000       0.45300000      -1.15390000
C        0.86580000      -2.01290000      -1.35880000
C       -0.19580000      -2.83490000      -2.04570000
C        1.19480000      -2.74430000      -2.62720000
H        0.80680000       1.97610000       0.15770000
H       -0.60860000       1.93990000      -0.89600000
H       -0.80860000       1.77200000       0.85750000
H        0.42130000      -0.42390000       0.79150000
H       -1.02510000      -0.47810000      -0.20090000
H       -0.72280000      -0.10720000      -2.49540000
H        4.28720000       0.81320000      -1.07800000
H        1.27260000      -2.42650000      -0.44070000
H       -0.51030000      -3.75770000      -1.57110000
H       -0.98670000      -2.32300000      -2.58320000
H        1.30980000      -2.14070000      -3.51980000
H        1.84360000      -3.61070000      -2.57060000
