14
Properties=species:S:1:pos:R:3 gdb_24515=T pbc="F F F"
O       -0.05870000       1.33720000       0.00970000
C        1.25030000       1.72580000      -0.00060000
N        2.13030000       0.78660000      -0.01400000
C        1.36460000      -0.38500000      -0.01290000
C        0.01040000      -0.03180000       0.00180000
C       -1.02500000      -0.95000000       0.00680000
C       -0.64130000      -2.28980000      -0.00390000
C        0.71040000      -2.67030000      -0.01870000
C        1.73440000      -1.72830000      -0.02340000
H        1.42140000       2.79190000       0.00340000
H       -2.06440000      -0.64610000       0.01820000
H       -1.40750000      -3.05740000      -0.00070000
H        0.95870000      -3.72600000      -0.02660000
H        2.77860000      -2.01720000      -0.03480000
