19
Properties=species:S:1:pos:R:3 gdb_81476=T pbc="F F F"
O       -0.03170000       1.37850000      -0.05230000
C        0.01670000      -0.03470000       0.00600000
C        0.09090000      -0.62710000       1.46390000
C       -1.41150000      -0.22260000       1.54930000
C       -1.42710000      -0.62120000       0.04140000
C       -1.25000000      -2.18880000      -0.07690000
C       -1.20620000      -2.85530000       1.31830000
C        0.19170000      -2.19330000       1.27870000
O        0.18730000      -2.46910000      -0.16270000
H        0.87270000       1.70180000       0.00170000
H        0.70860000      -0.43240000      -0.73380000
H        0.81170000      -0.22470000       2.17960000
H       -2.07330000      -0.72000000       2.25590000
H       -1.51260000       0.85600000       1.65910000
H       -2.18380000      -0.21140000      -0.62970000
H       -1.81110000      -2.63760000      -0.89820000
H       -1.93350000      -2.61930000       2.09240000
H       -1.10730000      -3.93580000       1.20940000
H        1.04380000      -2.64890000       1.78630000
