22
Properties=species:S:1:pos:R:3 gdb_110070=T pbc="F F F"
C        0.48710000       1.54490000       0.05690000
C        0.06210000       0.07690000      -0.08220000
C        0.56040000      -0.54510000      -1.37070000
N        1.87640000      -1.14560000      -1.48550000
C        2.91350000      -1.17020000      -0.58960000
O        3.30810000      -0.22960000       0.06420000
C        0.72880000      -2.03470000      -1.61240000
C        0.44340000      -3.03470000      -0.50720000
C        0.47740000      -2.56750000      -3.01080000
H        1.57640000       1.61610000       0.09090000
H        0.12390000       2.14260000      -0.78660000
H        0.07850000       1.98060000       0.97350000
H        0.42320000      -0.48830000       0.78120000
H       -1.03340000       0.00190000      -0.07620000
H        0.28500000       0.03210000      -2.25550000
H        3.42350000      -2.15380000      -0.58460000
H        0.66020000      -2.63560000       0.48540000
H       -0.60940000      -3.33520000      -0.53310000
H        1.04400000      -3.94050000      -0.64510000
H        1.08780000      -3.45680000      -3.20350000
H       -0.57370000      -2.85090000      -3.13120000
H        0.72490000      -1.81690000      -3.76530000
