19
Properties=species:S:1:pos:R:3 gdb_63964=T pbc="F F F"
C       -0.15270000       1.57610000       0.02300000
C        0.02860000       0.05790000       0.02360000
O       -1.25400000      -0.58610000      -0.03590000
C        0.82690000      -0.47610000      -1.21250000
C        1.45360000      -1.76450000      -0.66710000
O        2.90890000      -2.00110000      -0.70210000
C        2.94900000      -2.12890000       0.75270000
C        1.58470000      -1.49080000       0.79520000
C        0.88820000      -0.43760000       1.20220000
H        0.81120000       2.09380000       0.05410000
H       -0.69110000       1.88940000      -0.87620000
H       -0.73580000       1.89670000       0.89460000
H       -1.69310000      -0.44440000       0.80950000
H        0.17430000      -0.60630000      -2.07890000
H        1.62540000       0.22780000      -1.46360000
H        0.93000000      -2.67590000      -0.97760000
H        3.00070000      -3.18270000       1.05660000
H        3.77680000      -1.57360000       1.20590000
H        0.96210000       0.09470000       2.14390000
