21
Properties=species:S:1:pos:R:3 gdb_89853=T pbc="F F F"
C        0.01410000       1.49850000      -0.08730000
C        0.02070000      -0.02570000      -0.00060000
O        0.67360000      -0.49900000      -1.17790000
C        0.98680000      -1.86580000      -1.12840000
C       -0.11600000      -2.83530000      -1.48320000
C        1.01450000      -2.54710000      -2.45590000
C        1.99100000      -2.19570000      -0.04210000
C        1.60530000      -1.49610000       1.23560000
C        0.69360000      -0.52750000       1.25200000
H        1.03740000       1.88390000      -0.07020000
H       -0.46360000       1.81900000      -1.01700000
H       -0.53730000       1.92820000       0.75450000
H       -1.02650000      -0.38110000      -0.00570000
H       -0.14570000      -3.80080000      -0.98950000
H       -1.08680000      -2.41330000      -1.71820000
H        0.78310000      -1.93590000      -3.32070000
H        1.76340000      -3.31380000      -2.62450000
H        2.03780000      -3.28010000       0.11490000
H        3.00010000      -1.88700000      -0.35260000
H        2.09380000      -1.81110000       2.15390000
H        0.39850000      -0.04880000       2.18230000
