18
Properties=species:S:1:pos:R:3 gdb_114284=T pbc="F F F"
O       -0.10210000       1.54630000      -0.32490000
C        0.00390000       0.26320000       0.25550000
C       -1.30510000      -0.49020000       0.14730000
O       -1.64490000      -0.65560000      -1.30940000
C       -1.35880000      -1.98620000      -1.17010000
N       -0.84030000      -2.87920000      -1.89190000
C       -0.37610000      -3.87890000      -0.87860000
C       -0.20480000      -3.08810000       0.47750000
C       -1.32680000      -2.04690000       0.31630000
H       -0.37290000       1.41090000      -1.24100000
H        0.81120000      -0.32530000      -0.20600000
H        0.25420000       0.40660000       1.31240000
H       -2.11920000       0.04590000       0.63860000
H       -1.10190000      -4.69640000      -0.77750000
H        0.56480000      -4.31690000      -1.22050000
H       -0.30550000      -3.72090000       1.36210000
H        0.78540000      -2.62330000       0.50060000
H       -2.26610000      -2.36610000       0.77470000
