19
Properties=species:S:1:pos:R:3 gdb_90158=T pbc="F F F"
C       -0.21640000       1.40800000       0.01150000
C        0.10130000      -0.06230000       0.16730000
O        1.08950000      -0.55250000      -0.80470000
C        1.83490000      -1.16410000       0.26110000
C        2.42100000      -0.16020000       1.21120000
C        0.96970000      -0.57360000       1.33100000
O        0.60160000      -1.54200000       2.25480000
C        0.75320000      -2.82760000       1.60720000
C        1.85750000      -2.65740000       0.51170000
H        0.67810000       2.02380000       0.13700000
H       -0.63190000       1.60500000      -0.98190000
H       -0.95640000       1.71030000       0.76000000
H       -0.81110000      -0.66820000       0.09120000
H        3.05840000      -0.55950000       1.99190000
H        2.68930000       0.82540000       0.84440000
H        1.00530000      -3.55900000       2.38010000
H       -0.19990000      -3.12570000       1.14910000
H        1.61600000      -3.21460000      -0.39590000
H        2.83200000      -2.99840000       0.87130000
