10
Properties=species:S:1:pos:R:3 gdb_21744=T pbc="F F F"
O       -0.05680000       1.32830000       0.00980000
C        1.26230000       1.75850000      -0.00040000
C        2.12180000       0.71800000      -0.01430000
N        1.30250000      -0.40880000      -0.01270000
N        1.31930000      -1.76540000      -0.02030000
N        0.06020000      -2.10520000      -0.01020000
N       -0.79500000      -1.03750000       0.00380000
C        0.01790000      -0.01140000       0.00170000
H        1.40890000       2.82440000       0.00410000
H        3.19630000       0.68210000      -0.02470000
