20
Properties=species:S:1:pos:R:3 gdb_104578=T pbc="F F F"
C       -2.22570000       0.98220000      -1.74400000
C       -2.20500000      -0.50890000      -1.43790000
O       -2.68970000      -1.33790000      -2.18530000
N       -1.59910000      -0.84000000      -0.25070000
C       -1.29570000      -2.20290000       0.09520000
C       -0.12870000      -2.79880000      -0.65550000
O        1.02700000      -2.02490000      -0.34750000
C       -1.51130000      -2.58420000       1.53990000
C       -2.44940000      -3.08940000       0.47360000
H       -3.11880000       1.20730000      -2.32820000
H       -2.20900000       1.60120000      -0.84280000
H       -1.35190000       1.23890000      -2.35270000
H       -1.03130000      -0.13470000       0.19360000
H        0.00210000      -3.85020000      -0.35570000
H       -0.35100000      -2.77710000      -1.73100000
H        1.71470000      -2.25100000      -0.98000000
H       -0.80420000      -3.27500000       1.98500000
H       -1.87550000      -1.81390000       2.21010000
H       -3.43810000      -2.65380000       0.41130000
H       -2.39880000      -4.13360000       0.18610000
