19
Properties=species:S:1:pos:R:3 gdb_71875=T pbc="F F F"
C        0.08920000       1.49870000      -0.04710000
C       -0.05810000      -0.00570000      -0.06600000
C        0.72640000      -0.77180000      -1.16440000
C        0.15740000      -2.17520000      -0.99340000
C       -1.01910000      -2.12300000      -0.35860000
C       -1.34320000      -2.62300000       1.04160000
C       -1.14860000      -1.09940000       1.42030000
O        0.19930000      -0.57410000       1.28450000
C       -1.43460000      -0.68530000      -0.03280000
H        1.12460000       1.77590000       0.17810000
H       -0.17370000       1.92620000      -1.02080000
H       -0.55320000       1.94670000       0.71590000
H        0.57800000      -0.30530000      -2.14850000
H        1.80440000      -0.76770000      -0.96600000
H        0.78690000      -3.05730000      -1.04480000
H       -2.39030000      -2.88790000       1.23110000
H       -0.67920000      -3.37360000       1.47540000
H       -1.64900000      -0.72810000       2.31960000
H       -2.35700000      -0.25000000      -0.41290000
