19
Properties=species:S:1:pos:R:3 gdb_94157=T pbc="F F F"
C        0.18410000       1.38700000       0.13970000
C       -0.27790000      -0.04250000       0.01970000
O       -0.83060000      -0.64280000       0.92130000
C       -0.03580000      -0.76020000      -1.30450000
C       -1.33220000      -0.82470000      -2.10450000
O        1.04910000      -0.18460000      -2.07240000
C        1.84380000      -1.38910000      -1.95040000
C        0.74600000      -2.10540000      -1.14650000
O        1.15250000      -2.47050000       0.14120000
H        1.27810000       1.41310000       0.10210000
H       -0.16120000       1.98000000      -0.71340000
H       -0.17090000       1.81480000       1.07770000
H       -1.67120000       0.17970000      -2.37810000
H       -1.17430000      -1.39160000      -3.02640000
H       -2.11450000      -1.31020000      -1.51380000
H        2.08930000      -1.81200000      -2.93000000
H        2.75880000      -1.22680000      -1.37090000
H        0.26190000      -2.93850000      -1.67420000
H        0.39120000      -2.34830000       0.72620000
