13
Properties=species:S:1:pos:R:3 gdb_125663=T pbc="F F F"
C       -0.02520000       1.48830000       0.02360000
C        0.00040000       0.00580000      -0.00190000
N       -0.00620000      -0.74990000      -1.07090000
N        0.02500000      -2.05330000      -0.63190000
C        0.05090000      -2.09870000       0.71890000
N        0.08460000      -2.90330000       1.76620000
N        0.08900000      -2.04010000       2.82370000
N        0.06070000      -0.78660000       2.48560000
N        0.03560000      -0.80600000       1.11880000
H        0.86030000       1.88300000       0.53160000
H       -0.05080000       1.86410000      -0.99950000
H       -0.90470000       1.85190000       0.56430000
H        0.02560000      -2.80680000      -1.29550000
