18
Properties=species:S:1:pos:R:3 gdb_39751=T pbc="F F F"
C        0.00350000       1.52200000      -0.01010000
N        1.23260000       0.68820000       0.04450000
C       -0.07860000       0.05100000       0.03480000
C       -0.50260000      -0.93260000       1.10140000
C       -1.88140000      -1.48020000       0.74450000
C       -2.72500000      -0.71240000      -0.27060000
O       -1.91640000      -0.62470000      -1.45370000
C       -0.59080000      -0.92630000      -1.05170000
C       -0.67540000      -2.02220000       0.04450000
H       -0.17950000       2.11270000       0.88380000
H       -0.25210000       2.01710000      -0.94380000
H        1.65590000       0.63780000      -0.88020000
H       -0.08890000      -1.00930000       2.09930000
H       -2.37690000      -2.08050000       1.49840000
H       -3.64700000      -1.24900000      -0.52130000
H       -2.99220000       0.29330000       0.07880000
H        0.02750000      -1.07360000      -1.93830000
H       -0.34540000      -3.05050000       0.00990000
