20
Properties=species:S:1:pos:R:3 gdb_39868=T pbc="F F F"
C       -0.04850000       1.52650000       0.01100000
C        1.26350000       0.77330000      -0.00640000
C       -0.03660000       0.02700000       0.00240000
C       -0.48140000      -0.96530000       1.06890000
C       -2.00370000      -0.98670000       1.31890000
C       -2.13270000      -1.79610000       0.01290000
C       -2.02980000      -0.97190000      -1.28600000
C       -0.50280000      -0.95310000      -1.06630000
N       -0.61780000      -2.06090000      -0.00370000
H       -0.33740000       2.03110000       0.92780000
H       -0.35570000       2.04150000      -0.89410000
H        1.84350000       0.77700000      -0.92410000
H        1.86170000       0.76660000       0.89950000
H        0.18650000      -1.13860000       1.91670000
H       -2.25790000      -1.59500000       2.19110000
H       -2.52590000      -0.02800000       1.39020000
H       -2.80710000      -2.65470000       0.01480000
H       -2.30140000      -1.57020000      -2.15980000
H       -2.55320000      -0.01250000      -1.33600000
H        0.14810000      -1.11670000      -1.92920000
