20
Properties=species:S:1:pos:R:3 gdb_31236=T pbc="F F F"
C        0.02640000       1.61230000       0.34030000
C       -0.01960000       0.12980000      -0.07290000
C       -1.39670000      -0.42670000      -0.17290000
C       -2.14970000      -0.91570000      -1.20800000
N       -1.76050000      -1.07480000      -2.54300000
C       -2.80140000      -1.08990000      -3.55920000
C       -3.41390000      -1.30300000      -0.63920000
C       -3.33040000      -1.02430000       0.68700000
O       -2.12460000      -0.49620000       0.99280000
H        1.05970000       1.96310000       0.42640000
H       -0.49040000       2.24030000      -0.39220000
H       -0.46390000       1.75540000       1.30720000
H        0.47690000      -0.00340000      -1.04120000
H        0.56730000      -0.46000000       0.64480000
H       -0.99870000      -0.46030000      -2.79250000
H       -2.33190000      -1.15000000      -4.54440000
H       -3.42730000      -1.98040000      -3.44160000
H       -3.46110000      -0.20710000      -3.53940000
H       -4.26090000      -1.73050000      -1.15110000
H       -4.01900000      -1.13830000       1.50810000
