16
Properties=species:S:1:pos:R:3 gdb_26874=T pbc="F F F"
C        0.00460000       1.52660000       0.03170000
C       -0.06830000       0.03070000       0.01450000
C       -1.22930000      -0.68570000      -0.08090000
O       -2.42440000      -0.01240000      -0.16510000
C       -1.15990000      -2.10610000      -0.08620000
C        0.02570000      -2.77030000       0.00070000
C        1.28490000      -2.05930000       0.10490000
O        2.40380000      -2.54540000       0.18860000
N        1.11140000      -0.66590000       0.10230000
H        0.62510000       1.89990000      -0.79170000
H       -0.99300000       1.95330000      -0.06640000
H        0.44620000       1.88930000       0.96770000
H       -3.13590000      -0.65250000      -0.25430000
H       -2.08830000      -2.66980000      -0.16220000
H        0.07740000      -3.85140000      -0.00410000
H        1.97780000      -0.14930000       0.17380000
