21
Properties=species:S:1:pos:R:3 gdb_87003=T pbc="F F F"
C        0.19960000       1.55270000       0.28960000
C        0.15220000       0.03590000       0.20350000
C        0.97170000      -0.68520000      -0.90550000
C        1.31570000      -1.79560000       0.12580000
C        2.71590000      -2.37210000       0.09860000
O        2.88240000      -3.34220000       1.14470000
C        3.70060000      -3.04580000       2.16930000
O        3.87120000      -3.77830000       3.09700000
C        0.92360000      -0.80760000       1.25890000
H        1.23420000       1.91230000       0.33220000
H       -0.27870000       2.01650000      -0.58040000
H       -0.31610000       1.91630000       1.18540000
H       -0.88970000      -0.30130000       0.16050000
H        0.45610000      -0.98010000      -1.82260000
H        1.86080000      -0.10390000      -1.17830000
H        0.59390000      -2.61620000       0.06660000
H        2.90940000      -2.89440000      -0.84440000
H        3.46640000      -1.57660000       0.20580000
H        4.19620000      -2.06140000       2.05080000
H        1.79800000      -0.26240000       1.63460000
H        0.36730000      -1.20120000       2.11220000
