27
Properties=species:S:1:pos:R:3 gdb_100758=T pbc="F F F"
C       -0.16020000       1.52670000       0.17920000
C        0.07780000       0.01750000       0.07210000
C        0.75550000      -0.43610000      -1.23830000
C        2.22910000      -0.00500000      -1.28660000
C        0.58240000      -1.96320000      -1.41750000
O       -0.80270000      -2.32010000      -1.41430000
C        1.30500000      -2.58810000      -2.63550000
C        1.18380000      -4.11810000      -2.59260000
C        0.79780000      -2.03920000      -3.97820000
H        0.77230000       2.10000000       0.15520000
H       -0.78970000       1.88690000      -0.64280000
H       -0.66910000       1.77460000       1.11610000
H        0.69120000      -0.31950000       0.91970000
H       -0.87880000      -0.50570000       0.15940000
H        0.22740000       0.05480000      -2.07150000
H        2.82270000      -0.56540000      -0.55400000
H        2.67800000      -0.16230000      -2.27090000
H        2.33470000       1.05740000      -1.05000000
H        0.98280000      -2.45000000      -0.51710000
H       -1.22530000      -1.84970000      -2.14100000
H        2.36840000      -2.33550000      -2.54630000
H        0.13360000      -4.42170000      -2.62300000
H        1.70200000      -4.57760000      -3.44050000
H        1.61950000      -4.52350000      -1.67310000
H       -0.26390000      -2.27010000      -4.12870000
H        0.92360000      -0.95510000      -4.06130000
H        1.34140000      -2.49830000      -4.80970000
