16
Properties=species:S:1:pos:R:3 gdb_26634=T pbc="F F F"
C       -0.07890000       1.49530000       0.05850000
C       -0.01050000       0.00160000       0.02630000
C        0.01040000      -0.80500000      -1.09020000
N       -0.01330000      -0.55140000      -2.47950000
N        0.07540000      -2.11880000      -0.66530000
C        0.09580000      -2.18110000       0.68930000
C        0.04550000      -0.87890000       1.16060000
C        0.04580000      -0.48830000       2.52080000
N        0.04440000      -0.14390000       3.62780000
H        0.80560000       1.93180000       0.53580000
H       -0.14810000       1.90160000      -0.95480000
H       -0.94980000       1.84720000       0.62210000
H        0.73320000       0.07250000      -2.76540000
H       -0.89020000      -0.13910000      -2.78080000
H        0.11130000      -2.89680000      -1.30250000
H        0.14310000      -3.11460000       1.22460000
