20
Properties=species:S:1:pos:R:3 gdb_15249=T pbc="F F F"
C        0.78850000      -0.36370000      -0.74130000
C        0.07200000      -1.71850000      -0.69390000
C       -1.38680000      -1.59520000      -0.29340000
C       -2.17630000      -2.68180000       0.36380000
C       -1.61480000      -4.04770000       0.70520000
C       -1.84190000      -1.41470000       1.16470000
C       -0.88030000      -1.43510000       2.28530000
O       -0.98720000      -0.74740000       3.27450000
H        1.82430000      -0.47750000      -1.07490000
H        0.28820000       0.32330000      -1.43250000
H        0.80180000       0.11250000       0.24450000
H        0.11460000      -2.18950000      -1.68460000
H        0.61160000      -2.39200000      -0.02160000
H       -1.95320000      -0.96820000      -0.97910000
H       -3.22410000      -2.72070000       0.07630000
H       -0.55550000      -4.02540000       0.96870000
H       -2.15510000      -4.48980000       1.54860000
H       -1.72440000      -4.72310000      -0.15020000
H       -2.65640000      -0.71900000       1.33790000
H       -0.02210000      -2.13410000       2.17990000
