25
Properties=species:S:1:pos:R:3 gdb_94830=T pbc="F F F"
C        0.02600000       1.57940000       0.01010000
C        0.01140000       0.04810000       0.00210000
C        0.66290000      -0.51950000      -1.27100000
C        0.66150000      -2.05640000      -1.28290000
C        1.31020000      -2.61940000      -0.02860000
C        1.81910000      -4.03500000      -0.04250000
C        2.79830000      -2.88350000      -0.04870000
C        0.69330000      -2.07000000       1.24770000
C        0.69470000      -0.53300000       1.25220000
H        1.05420000       1.96070000      -0.00080000
H       -0.48810000       1.98820000      -0.86650000
H       -0.46580000       1.97870000       0.90380000
H       -1.03900000      -0.28310000       0.01360000
H        0.14560000      -0.13610000      -2.15870000
H        1.69900000      -0.15710000      -1.33140000
H       -0.37630000      -2.41530000      -1.34440000
H        1.17400000      -2.43150000      -2.17630000
H        1.72880000      -4.62260000       0.86580000
H        1.70590000      -4.61290000      -0.95460000
H        3.34650000      -2.68560000      -0.96450000
H        3.36940000      -2.69540000       0.85510000
H       -0.34260000      -2.42960000       1.33140000
H        1.22810000      -2.45450000       2.12380000
H        1.73200000      -0.17110000       1.29040000
H        0.20000000      -0.15920000       2.15680000
