16
Properties=species:S:1:pos:R:3 gdb_34178=T pbc="F F F"
C        0.07320000      -1.12450000      -0.01730000
C        0.03580000       0.07810000      -0.00950000
C       -0.03610000       1.50310000      -0.02090000
C       -1.08520000       2.26560000      -0.82660000
N       -0.75690000       3.65810000      -0.52250000
C       -0.22860000       3.74680000       0.84870000
C        0.69580000       3.78400000      -0.31960000
C        1.22260000       2.36610000       0.04040000
C        0.28700000       2.32850000       1.22300000
H        0.10980000      -2.18550000      -0.02140000
H       -0.99840000       2.08300000      -1.90150000
H       -2.10490000       2.03840000      -0.50290000
H       -0.58780000       4.51550000       1.52010000
H        1.24220000       4.58910000      -0.79290000
H        2.22400000       1.97750000      -0.06920000
H        0.42330000       1.90500000       2.20680000
