14
Properties=species:S:1:pos:R:3 gdb_49464=T pbc="F F F"
O       -0.01220000      -0.01910000       0.31440000
C       -0.00280000       1.11780000      -0.09180000
C        1.21330000       1.96680000      -0.07140000
C        1.55740000       2.97810000      -1.19030000
N        0.50120000       3.47750000      -2.00360000
C       -0.47140000       4.12010000      -1.26220000
O       -1.52040000       4.56090000      -1.62540000
O       -0.03470000       4.16170000       0.05000000
C        1.18850000       3.47640000       0.16280000
H       -0.91990000       1.58050000      -0.50920000
H        2.07870000       1.47230000       0.35830000
H        2.56160000       2.99660000      -1.59590000
H        0.26680000       3.12530000      -2.91660000
H        1.86770000       3.92620000       0.87470000
