17
Properties=species:S:1:pos:R:3 gdb_19266=T pbc="F F F"
C        0.01770000       1.62900000       0.21820000
C        0.08910000       0.11340000       0.00060000
C       -1.28590000      -0.52430000      -0.12310000
N       -2.16420000      -0.16020000      -1.30840000
C       -1.52170000      -0.72600000      -2.48830000
C       -2.33330000      -1.64320000      -1.63430000
C       -1.51180000      -2.02330000      -0.43590000
O       -1.29850000      -3.04320000       0.15290000
H        1.01950000       2.06000000       0.30310000
H       -0.49500000       2.12170000      -0.61340000
H       -0.53150000       1.86960000       1.13470000
H        0.70020000      -0.10870000      -0.88110000
H        0.59490000      -0.36920000       0.84560000
H       -1.87200000      -0.30290000       0.77870000
H       -1.97580000      -0.41350000      -3.42370000
H       -0.44190000      -0.83900000      -2.52820000
H       -3.26820000      -2.08130000      -1.96380000
