15
Properties=species:S:1:pos:R:3 gdb_33066=T pbc="F F F"
O        0.15200000       1.39420000      -0.06830000
C        0.10020000      -0.01800000      -0.04780000
C       -1.34200000      -0.53600000       0.13350000
C       -1.42830000      -2.01440000       0.17780000
C       -1.75080000      -2.90490000       1.11380000
O       -1.63530000      -4.18110000       0.59390000
C       -1.22420000      -4.05530000      -0.70380000
O       -1.01810000      -4.94430000      -1.46360000
O       -1.09210000      -2.71850000      -0.97380000
H       -0.21250000       1.69720000      -0.90590000
H        0.54270000      -0.46050000      -0.95100000
H        0.70880000      -0.33500000       0.80500000
H       -1.75520000      -0.12750000       1.06040000
H       -1.96200000      -0.16120000      -0.69200000
H       -2.07100000      -2.81580000       2.13640000
