20
Properties=species:S:1:pos:R:3 gdb_87626=T pbc="F F F"
C       -0.20390000       1.55770000       0.22210000
C       -0.14360000       0.05010000       0.25670000
N        1.05850000      -0.58990000      -0.30460000
C        0.78630000      -0.72460000       1.13620000
C        1.70830000      -0.12750000       2.13780000
C        1.63490000      -0.76940000       3.30560000
C        0.63800000      -1.90420000       3.26520000
C        0.37230000      -2.07870000       1.74810000
O       -0.91400000      -2.54840000       1.39790000
H        0.78020000       1.99500000       0.40620000
H       -0.54600000       1.90550000      -0.75860000
H       -0.89950000       1.94080000       0.97690000
H       -1.08730000      -0.45260000       0.04940000
H        0.79820000      -1.45470000      -0.77640000
H        2.33920000       0.72390000       1.91520000
H        2.19480000      -0.51240000       4.19750000
H        0.99750000      -2.82500000       3.73560000
H       -0.29420000      -1.63440000       3.78570000
H        1.05740000      -2.84130000       1.35730000
H       -1.56090000      -1.94990000       1.78810000
