17
Properties=species:S:1:pos:R:3 gdb_52227=T pbc="F F F"
O        0.41660000       1.11540000       1.17110000
C        0.26130000       1.54050000       0.04560000
N        1.20110000       1.47240000      -0.93520000
C        2.50030000       0.85620000      -0.70500000
C        3.48180000       1.76270000       0.01260000
C        4.95680000       1.59460000      -0.22930000
N        4.25220000       2.75290000      -0.72220000
C        4.12890000       3.09870000      -2.05280000
O        4.99370000       2.98160000      -2.88680000
H       -0.67190000       2.02570000      -0.30080000
H        0.99750000       1.87760000      -1.83440000
H        2.34150000      -0.03390000      -0.08840000
H        2.91030000       0.54010000      -1.66900000
H        3.15000000       2.08390000       0.99670000
H        5.65840000       1.76830000       0.58100000
H        5.27480000       0.86300000      -0.96890000
H        3.15080000       3.57740000      -2.25800000
