25
Properties=species:S:1:pos:R:3 gdb_60221=T pbc="F F F"
C        0.90200000      -0.32300000      -1.07240000
C       -0.01640000       0.05010000       0.10030000
C       -0.12120000       1.57580000       0.23410000
C       -1.41980000      -0.57280000      -0.03030000
C       -1.48310000      -2.10280000       0.01390000
C       -0.99780000      -2.74560000       1.34480000
C       -1.89630000      -3.94930000       1.50160000
C       -2.93260000      -3.91100000       0.66620000
C       -2.91350000      -2.67500000      -0.20040000
H        1.88690000       0.14270000      -0.96080000
H        1.05670000      -1.40330000      -1.15060000
H        0.47870000       0.02260000      -2.02360000
H        0.44080000      -0.33460000       1.02300000
H       -0.58070000       2.01540000      -0.65960000
H       -0.73400000       1.86060000       1.09600000
H        0.86600000       2.03350000       0.35760000
H       -2.05610000      -0.17840000       0.77480000
H       -1.87150000      -0.22190000      -0.96980000
H       -0.85710000      -2.50910000      -0.78890000
H        0.06690000      -3.00530000       1.32240000
H       -1.12530000      -2.05690000       2.19450000
H       -1.71740000      -4.72010000       2.24370000
H       -3.72970000      -4.64550000       0.62180000
H       -3.68510000      -1.96130000       0.12760000
H       -3.12220000      -2.88300000      -1.25640000
