21
Properties=species:S:1:pos:R:3 gdb_121756=T pbc="F F F"
C       -0.04450000       1.46020000      -0.03730000
C        0.01160000      -0.05650000       0.01360000
O        0.70800000      -0.43890000       1.18480000
C        0.81890000      -1.81930000       1.33310000
C        1.57900000      -2.16130000       2.61280000
O        2.00390000      -1.31300000       3.35820000
C        1.75840000      -3.64830000       2.87450000
C        2.52100000      -3.93740000       4.15890000
O        2.61600000      -5.34930000       4.27960000
H        0.96510000       1.87980000      -0.05640000
H       -0.57760000       1.79120000      -0.93350000
H       -0.56150000       1.85360000       0.84220000
H       -1.00580000      -0.48380000       0.02050000
H        0.52160000      -0.45750000      -0.87910000
H       -0.17100000      -2.31170000       1.37700000
H        1.34910000      -2.28570000       0.48120000
H        0.77330000      -4.13200000       2.91010000
H        2.27760000      -4.10680000       2.02260000
H        3.51180000      -3.46380000       4.11320000
H        1.99040000      -3.48940000       5.01080000
H        3.09680000      -5.54660000       5.08850000
