19
Properties=species:S:1:pos:R:3 gdb_69604=T pbc="F F F"
O       -0.27060000       1.35750000      -0.12100000
C       -0.06900000      -0.01410000       0.03680000
C       -0.13700000      -0.91560000      -1.16520000
C       -1.24180000      -0.94750000      -0.11620000
C       -1.12090000      -1.99400000       0.95260000
C       -2.26850000      -2.43540000       1.75450000
O       -1.69690000      -3.28660000       0.75380000
C        0.30970000      -1.93030000       1.49350000
C        0.76230000      -0.47740000       1.23080000
H        0.51770000       1.72910000      -0.53180000
H       -0.40390000      -0.43330000      -2.09890000
H        0.53530000      -1.76180000      -1.26450000
H       -2.22000000      -0.57400000      -0.39310000
H       -2.11770000      -2.75680000       2.78490000
H       -3.26610000      -2.05710000       1.53130000
H        0.37280000      -2.21470000       2.54620000
H        0.92590000      -2.64130000       0.93270000
H        1.84230000      -0.39510000       1.06340000
H        0.50900000       0.16880000       2.07830000
