14
Properties=species:S:1:pos:R:3 gdb_22698=T pbc="F F F"
O       -0.07720000       1.35100000       0.06610000
N        0.05480000      -0.05150000       0.00740000
C       -1.06700000      -0.61580000      -0.06040000
C       -2.58120000      -0.45560000      -0.01210000
C       -2.66350000      -1.57770000      -1.08820000
C       -1.59750000      -2.04510000      -0.04590000
N       -2.60530000      -1.59370000       1.02290000
C       -0.88840000      -3.29610000       0.02190000
N       -0.31300000      -4.29690000       0.06680000
H        0.84280000       1.63520000       0.10340000
H       -3.19110000       0.43540000       0.09580000
H       -3.58530000      -2.15910000      -1.05910000
H       -2.30600000      -1.34950000      -2.09130000
H       -2.09380000      -1.30670000       1.86360000
