16
Properties=species:S:1:pos:R:3 gdb_97512=T pbc="F F F"
O        0.22870000       1.36160000       0.45060000
C        0.10700000      -0.03490000       0.24940000
C       -1.26990000      -0.49350000       0.07910000
C       -2.40850000      -0.86060000      -0.08890000
C       -3.77430000      -1.29100000      -0.27400000
O       -4.07360000      -2.46100000      -0.43680000
C       -4.81120000      -0.21230000      -0.26050000
C       -5.78690000      -0.22870000      -1.40140000
N       -6.20420000      -0.63380000      -0.06780000
H       -0.17300000       1.80550000      -0.30370000
H        0.70200000      -0.38110000      -0.61100000
H        0.53890000      -0.50860000       1.13820000
H       -4.52760000       0.73380000       0.18880000
H       -6.18870000       0.71680000      -1.75350000
H       -5.64180000      -0.99390000      -2.15890000
H       -6.19660000      -1.65390000      -0.02090000
