14
Properties=species:S:1:pos:R:3 gdb_42323=T pbc="F F F"
O       -0.01830000      -0.05060000       0.28860000
C       -0.06740000       1.13790000       0.12370000
C        1.16410000       1.94080000      -0.06110000
N        2.09910000       2.60190000      -0.22280000
C       -1.34850000       1.96340000       0.04690000
C       -1.67930000       2.34910000      -1.44090000
O       -3.01610000       1.91680000      -1.59510000
C       -3.17720000       0.85470000      -0.69000000
O       -2.46310000       1.22710000       0.47670000
H       -1.23190000       2.85110000       0.67960000
H       -1.63060000       3.42380000      -1.62140000
H       -1.00880000       1.83650000      -2.14570000
H       -4.23520000       0.74870000      -0.44200000
H       -2.77220000      -0.08520000      -1.09910000
