17
Properties=species:S:1:pos:R:3 gdb_125196=T pbc="F F F"
C        0.06340000       1.50190000       0.09000000
C       -0.09040000       0.02390000       0.09620000
C       -1.10310000      -0.84790000      -0.13870000
N       -2.44130000      -0.94680000      -0.54740000
C       -2.86280000      -2.33210000      -0.19010000
C       -1.55660000      -3.18630000      -0.20760000
C       -0.52940000      -2.12530000       0.05840000
N        0.73010000      -2.07960000       0.38720000
O        1.02290000      -0.71090000       0.41940000
H        0.83970000       1.81670000      -0.61610000
H       -0.87570000       1.97600000      -0.20540000
H        0.34530000       1.88240000       1.07820000
H       -3.06600000      -0.23520000      -0.19180000
H       -3.30360000      -2.36360000       0.81650000
H       -3.60990000      -2.69580000      -0.89980000
H       -1.57890000      -3.99150000       0.52930000
H       -1.39540000      -3.63790000      -1.19290000
