15
Properties=species:S:1:pos:R:3 gdb_124142=T pbc="F F F"
C       -0.09290000       1.45030000       0.01170000
C       -0.02830000      -0.00270000       0.00740000
C        0.04280000      -1.20780000      -0.00300000
C        0.06640000      -2.61720000      -0.01120000
C        1.11380000      -3.48990000       0.03690000
O        0.69150000      -4.75260000       0.01500000
N       -0.71460000      -4.76730000      -0.04570000
C       -1.07110000      -3.50330000      -0.06900000
N       -2.38140000      -3.10720000      -0.19310000
H        0.87880000       1.88580000      -0.24570000
H       -0.82330000       1.81800000      -0.71760000
H       -0.37950000       1.83850000       0.99570000
H        2.18100000      -3.33910000       0.08810000
H       -3.05910000      -3.81210000       0.05800000
H       -2.58000000      -2.19760000       0.19650000
