24
Properties=species:S:1:pos:R:3 gdb_65564=T pbc="F F F"
C        0.02440000       1.58150000      -0.00900000
C       -0.02920000       0.05250000       0.02180000
C       -1.46940000      -0.44860000       0.13640000
N       -2.31740000       0.03380000      -0.95010000
C       -2.48540000      -0.84530000      -2.10260000
C       -3.59390000      -0.64420000      -1.12960000
C        0.85940000      -0.59340000      -1.09330000
C        1.99240000      -0.78690000      -0.05100000
C        0.95330000      -0.55010000       1.07720000
H        1.05500000       1.94160000      -0.09510000
H       -0.55210000       1.96870000      -0.85290000
H       -0.40020000       2.00380000       0.90950000
H       -1.47060000      -1.55380000       0.19370000
H       -1.90070000      -0.08060000       1.07760000
H       -2.50370000      -0.36000000      -3.07430000
H       -1.98540000      -1.81250000      -2.08610000
H       -3.82700000      -1.47740000      -0.46740000
H       -4.43980000      -0.00770000      -1.37440000
H        0.45670000      -1.55100000      -1.43620000
H        1.07630000       0.02270000      -1.97000000
H        2.51230000      -1.74760000      -0.05390000
H        2.74370000       0.00550000      -0.09800000
H        1.24410000       0.10230000       1.90550000
H        0.57870000      -1.49080000       1.49430000
