16
Properties=species:S:1:pos:R:3 gdb_27692=T pbc="F F F"
C       -0.03800000       1.50440000       0.08710000
C       -0.00490000       0.01730000      -0.03890000
C       -0.02850000      -0.78260000      -1.16900000
C        0.02310000      -2.12570000      -0.73430000
O        0.01850000      -3.20360000      -1.55410000
C        0.07770000      -2.13460000       0.65590000
N        0.05800000      -0.79870000       1.05160000
C        0.13970000      -3.22900000       1.52660000
C        0.19290000      -4.20170000       2.24240000
H        0.85630000       1.89370000       0.58900000
H       -0.08820000       1.96160000      -0.90320000
H       -0.90940000       1.84830000       0.65770000
H       -0.07770000      -0.44170000      -2.19090000
H        0.05950000      -3.99630000      -1.00490000
H        0.09110000      -0.49670000       2.00950000
H        0.23980000      -5.05160000       2.87650000
