16
Properties=species:S:1:pos:R:3 gdb_74590=T pbc="F F F"
C        0.03210000       1.46830000       0.10390000
C       -0.03700000      -0.01290000      -0.00370000
N        0.05800000      -0.70120000      -1.07240000
C        0.00470000      -2.08730000      -0.64390000
C       -0.55100000      -2.16270000       0.72070000
C        0.92000000      -2.54500000       0.54080000
C        1.23600000      -1.37440000       1.37680000
N        2.21630000      -1.01790000       2.07440000
N       -0.14550000      -0.80190000       1.23290000
H        0.88530000       1.76420000       0.72460000
H        0.13860000       1.91380000      -0.88550000
H       -0.86780000       1.85380000       0.59410000
H       -0.19000000      -2.84070000      -1.39630000
H       -1.38470000      -2.70720000       1.14340000
H        1.40510000      -3.51090000       0.53080000
H        2.00710000      -0.16090000       2.58990000
