22
Properties=species:S:1:pos:R:3 gdb_113865=T pbc="F F F"
O       -0.06680000       1.34860000      -0.87900000
C        0.05530000       0.30600000       0.07450000
C       -1.27030000      -0.39160000       0.27710000
N       -1.74080000      -1.16010000      -0.89420000
C       -1.45700000      -1.86760000       0.37060000
C       -0.35310000      -2.88750000       0.37560000
C        0.24040000      -3.33780000       1.74250000
C        0.30520000      -4.78830000       1.19330000
C       -0.71870000      -4.37710000       0.10130000
H       -0.44020000       0.93510000      -1.66680000
H        0.82710000      -0.41610000      -0.22590000
H        0.38430000       0.77550000       1.00770000
H       -2.01280000       0.21990000       0.78800000
H       -2.74190000      -1.04170000      -1.02060000
H       -2.32630000      -2.17560000       0.95450000
H        0.44400000      -2.57630000      -0.30410000
H        1.16870000      -2.86630000       2.07440000
H       -0.49990000      -3.24460000       2.54450000
H        1.28550000      -5.01330000       0.76330000
H        0.02980000      -5.60080000       1.86930000
H       -1.74640000      -4.59470000       0.41200000
H       -0.57570000      -4.75600000      -0.91310000
