14
Properties=species:S:1:pos:R:3 gdb_74176=T pbc="F F F"
N        0.02230000       0.96990000       0.00680000
H       -0.28400000       0.03470000      -0.27910000
H        1.02010000       0.93060000       0.25720000
H       -0.09210000       1.59500000      -0.79710000
C       -0.73250000       1.45200000       1.17860000
C       -2.09130000       1.63980000       1.24300000
C       -2.34500000       2.11770000       2.58670000
O       -3.35140000       2.43400000       3.16760000
O       -1.08090000       2.17870000       3.23540000
C       -0.10080000       1.77180000       2.37250000
C        1.27690000       1.70880000       2.68720000
O        1.85880000       1.98210000       3.72080000
H       -2.85370000       1.48470000       0.49750000
H        1.88480000       1.33760000       1.79630000
