23
Properties=species:S:1:pos:R:3 gdb_83582=T pbc="F F F"
C       -0.03310000       1.53450000       0.02350000
C        0.03460000       0.00610000      -0.00570000
C        0.91620000      -0.57710000      -1.13320000
C        2.32010000      -0.30680000      -0.56320000
O        2.18400000      -0.36850000       0.86370000
C        0.80080000      -0.59050000       1.18660000
C        0.51270000      -2.09490000       1.31280000
C        0.98260000      -2.84010000       0.04810000
C        0.63550000      -2.08970000      -1.25540000
H        0.95610000       1.97770000       0.17060000
H       -0.44760000       1.92980000      -0.91010000
H       -0.67220000       1.87850000       0.84360000
H       -0.98140000      -0.39900000      -0.06170000
H        0.76430000      -0.07600000      -2.09410000
H        3.05860000      -1.04830000      -0.89300000
H        2.69270000       0.68610000      -0.84730000
H        0.60390000      -0.07100000       2.13050000
H        1.02230000      -2.50120000       2.19290000
H       -0.56430000      -2.23210000       1.47590000
H        2.07000000      -2.95680000       0.10960000
H        0.56770000      -3.85300000       0.02300000
H       -0.42440000      -2.22970000      -1.50370000
H        1.20850000      -2.51700000      -2.08680000
