20
Properties=species:S:1:pos:R:3 gdb_80063=T pbc="F F F"
C       -0.20780000       1.59990000       0.05200000
C        0.05280000       0.11070000      -0.05240000
C        0.78370000      -0.58150000      -1.26740000
C        1.91910000       0.32180000      -1.65450000
C        2.75500000       0.60800000      -0.65300000
C        2.51530000      -0.18270000       0.60590000
C        2.71220000      -1.67910000       0.20950000
C        1.23600000      -1.62000000      -0.16280000
N        1.02430000      -0.52660000       0.88350000
H        0.69450000       2.19280000      -0.10830000
H       -0.95920000       1.91230000      -0.68190000
H       -0.59500000       1.82890000       1.05040000
H       -0.88760000      -0.42870000       0.12150000
H        0.18410000      -0.94300000      -2.10510000
H        1.96910000       0.77390000      -2.63900000
H        3.59170000       1.29490000      -0.72420000
H        3.02840000       0.20040000       1.48790000
H        3.46580000      -1.90580000      -0.54570000
H        2.83770000      -2.31500000       1.08930000
H        0.60940000      -2.51380000      -0.09410000
