20
Properties=species:S:1:pos:R:3 gdb_102847=T pbc="F F F"
C       -1.60990000      -0.46440000       0.02280000
C       -0.12460000      -0.07030000      -0.01510000
N        0.69030000      -0.65830000      -1.08590000
C        0.92420000      -2.08160000      -0.93260000
C        1.85490000      -2.36170000       0.23930000
O        1.82390000      -3.35990000       0.90890000
C        0.27690000      -0.29220000      -2.44170000
C        0.25820000       1.15260000      -2.66060000
C        0.22560000       2.33660000      -2.86210000
H       -2.14030000      -0.13310000      -0.87530000
H       -1.74990000      -1.54510000       0.12360000
H       -2.09300000       0.01130000       0.88190000
H       -0.03990000       1.01710000      -0.10140000
H        0.34660000      -0.34450000       0.93640000
H        0.02300000      -2.70810000      -0.82640000
H        1.45410000      -2.44470000      -1.82550000
H        2.60340000      -1.55440000       0.40830000
H        0.99360000      -0.74410000      -3.13900000
H       -0.71290000      -0.70170000      -2.71720000
H        0.20590000       3.38340000      -3.04050000
