19
Properties=species:S:1:pos:R:3 gdb_114017=T pbc="F F F"
C        0.03930000       0.54640000      -0.72730000
O        0.88840000      -0.54400000      -0.41900000
C        1.02530000      -0.77680000       0.94240000
C       -0.03780000      -1.57410000       1.67240000
C        1.29270000      -2.20110000       1.35290000
O        1.27840000      -3.20930000       0.39410000
C        2.36940000      -3.19400000      -0.51140000
C        1.92140000      -2.77790000      -1.90830000
O        2.68620000      -2.55280000      -2.80820000
H        0.42620000       1.48610000      -0.30690000
H        0.00880000       0.62930000      -1.81560000
H       -0.97740000       0.38420000      -0.34420000
H        1.53570000       0.01770000       1.48950000
H       -0.28110000      -1.33290000       2.70070000
H       -0.86290000      -1.92910000       1.06500000
H        1.99990000      -2.36180000       2.16700000
H        3.18060000      -2.53470000      -0.18260000
H        2.77530000      -4.21300000      -0.57960000
H        0.81810000      -2.73640000      -2.02510000
