16
Properties=species:S:1:pos:R:3 gdb_133610=T pbc="F F F"
F       -0.36010000      -0.03490000       0.22230000
C       -0.16290000       1.28270000       0.05590000
F        1.14970000       1.48220000      -0.08340000
F       -0.75670000       1.63760000      -1.09820000
C       -0.73570000       2.09960000       1.21530000
C       -2.22710000       1.80970000       1.46330000
C       -2.17780000       0.75190000       2.57810000
C       -0.93260000       1.17980000       3.35770000
O       -0.03700000       1.75350000       2.39790000
H       -0.54780000       3.15160000       0.96840000
H       -2.71810000       2.72160000       1.81430000
H       -2.74330000       1.47730000       0.56120000
H       -3.07790000       0.74070000       3.19650000
H       -2.03750000      -0.24390000       2.15130000
H       -1.17860000       1.93260000       4.12070000
H       -0.41620000       0.35020000       3.84860000
