12
Properties=species:S:1:pos:R:3 gdb_21219=T pbc="F F F"
C        0.06580000       1.41300000      -0.05370000
N       -0.04260000      -0.02990000       0.11330000
C       -1.25040000      -0.62330000       0.03160000
N       -2.40420000      -0.03980000      -0.01680000
O       -3.32280000      -1.14570000      -0.00840000
C       -2.64070000      -2.30390000       0.01300000
O       -3.07040000      -3.40850000       0.00980000
O       -1.28550000      -1.97560000       0.04110000
H        1.08110000       1.71750000       0.20380000
H       -0.16400000       1.73610000      -1.07630000
H       -0.63360000       1.90390000       0.62640000
H        0.73590000      -0.60410000      -0.16970000
