21
Properties=species:S:1:pos:R:3 gdb_84399=T pbc="F F F"
C        0.36500000       1.58420000      -0.02760000
C        0.00640000       0.08840000       0.01350000
C        0.35420000      -0.60030000      -1.28280000
C        0.78540000      -1.85730000      -1.37600000
C        0.98770000      -2.77840000      -0.20080000
O        2.09270000      -3.65920000      -0.41600000
C        1.10970000      -2.03260000       1.11490000
C        2.11110000      -0.90400000       1.23720000
C        0.63260000      -0.60430000       1.21750000
H        1.44410000       1.72480000      -0.14770000
H       -0.13670000       2.08520000      -0.86220000
H        0.06150000       2.08520000       0.89710000
H       -1.08680000       0.02260000       0.13390000
H        0.21860000      -0.01220000      -2.18880000
H        1.00340000      -2.30050000      -2.34440000
H        0.12610000      -3.45750000      -0.13720000
H        2.89110000      -3.12220000      -0.35900000
H        0.98830000      -2.66190000       1.99100000
H        2.65020000      -0.79610000       2.17150000
H        2.68460000      -0.63570000       0.35500000
H        0.19610000      -0.31190000       2.16850000
