23
Properties=species:S:1:pos:R:3 gdb_92652=T pbc="F F F"
C       -0.08360000       1.58370000      -0.16840000
C        0.06180000       0.08970000       0.02670000
O        0.95390000      -0.52180000      -0.93610000
C        1.39220000      -1.47250000       0.06570000
C        2.86730000      -1.82850000      -0.00860000
C        3.78370000      -0.74660000       0.57470000
C        3.30080000      -0.33900000       1.97210000
C        1.92030000       0.32930000       1.88630000
C        0.85880000      -0.55300000       1.19920000
H        0.88310000       2.09260000      -0.17070000
H       -0.56630000       1.78070000      -1.13110000
H       -0.70940000       2.01670000       0.61940000
H       -0.93410000      -0.37880000      -0.04350000
H        0.78640000      -2.38910000      -0.01590000
H        3.01520000      -2.76150000       0.55200000
H        3.11760000      -2.04680000      -1.05360000
H        4.81420000      -1.11560000       0.61050000
H        3.78370000       0.13360000      -0.08060000
H        3.25740000      -1.22710000       2.61840000
H        4.01070000       0.35220000       2.43960000
H        1.56910000       0.61230000       2.88430000
H        2.04700000       1.26590000       1.33390000
H        0.24390000      -1.06380000       1.94480000
