17
Properties=species:S:1:pos:R:3 gdb_96832=T pbc="F F F"
C        0.48030000       1.47620000       0.10950000
N        0.43740000       0.02040000       0.13010000
C        0.46290000      -0.61660000      -0.93920000
C        0.44270000      -2.07970000      -1.31580000
C        0.48600000      -1.53930000      -2.77600000
C       -0.73850000      -1.77920000      -3.64560000
O        0.51890000      -0.16750000      -2.26290000
C        1.72890000      -1.84020000      -3.49610000
N        2.69850000      -2.10090000      -4.06760000
H        1.34460000       1.81260000       0.69150000
H        0.54070000       1.90880000      -0.89540000
H       -0.41320000       1.86450000       0.60960000
H        1.31470000      -2.65060000      -0.99610000
H       -0.47010000      -2.61900000      -1.05830000
H       -1.64080000      -1.54310000      -3.07590000
H       -0.70420000      -1.14400000      -4.53400000
H       -0.77960000      -2.82430000      -3.96520000
