13
Properties=species:S:1:pos:R:3 gdb_25394=T pbc="F F F"
O        0.03860000      -0.04200000      -0.00120000
C        0.00070000       1.16750000       0.00910000
C        1.22030000       1.99600000       0.00190000
C        1.20690000       3.35980000       0.01350000
N        2.36420000       4.09450000       0.00630000
C        3.49130000       3.45180000      -0.01210000
C        3.64830000       1.98200000      -0.02630000
O        4.70690000       1.38830000      -0.04350000
N        2.41370000       1.33540000      -0.01740000
H       -0.95030000       1.73350000       0.02500000
H        0.27170000       3.90700000       0.02890000
H        4.41850000       4.02070000      -0.01810000
H        2.39210000       0.32030000      -0.02570000
