22
Properties=species:S:1:pos:R:3 gdb_88970=T pbc="F F F"
C       -0.30610000       1.51040000       0.29260000
N       -0.00270000       0.09390000       0.13450000
C        1.34680000      -0.26780000      -0.27760000
C        0.86040000      -0.59410000       1.09480000
C        1.47250000       0.06500000       2.31940000
C        0.56010000       0.09830000       3.53930000
C        0.07290000      -1.23180000       4.07400000
C        0.64390000       1.25110000       4.44980000
O       -0.43850000       1.13220000       3.52290000
H        0.56480000       2.13930000       0.53610000
H       -0.72580000       1.87740000      -0.64980000
H       -1.04540000       1.63900000       1.08600000
H        1.43480000      -1.03790000      -1.04050000
H        2.08230000       0.53360000      -0.35900000
H        0.54140000      -1.62150000       1.26830000
H        2.38160000      -0.49140000       2.58680000
H        1.78830000       1.08580000       2.08840000
H        0.91680000      -1.88030000       4.33370000
H       -0.53990000      -1.08310000       4.96610000
H       -0.53690000      -1.75320000       3.33020000
H        0.37450000       1.13320000       5.49890000
H        1.35020000       2.05520000       4.24420000
