22
Properties=species:S:1:pos:R:3 gdb_5797=T pbc="F F F"
C       -0.16400000       1.59000000       0.00510000
C        0.11130000       0.09310000       0.00820000
O        1.24530000      -0.33150000       0.00410000
C       -1.13000000      -0.79400000       0.01630000
C       -0.94840000      -2.32880000       0.00050000
C       -0.18250000      -2.79950000       1.25170000
C       -2.35410000      -2.96030000       0.00750000
C       -0.20560000      -2.77590000      -1.27310000
H        0.77920000       2.13730000       0.01870000
H       -0.73880000       1.87080000      -0.88470000
H       -0.76790000       1.87280000       0.87450000
H       -1.72050000      -0.50020000       0.89700000
H       -1.74520000      -0.48460000      -0.84180000
H       -0.70220000      -2.49620000       2.16840000
H       -0.10780000      -3.89240000       1.26300000
H        0.82680000      -2.38560000       1.27510000
H       -2.93490000      -2.65500000      -0.87040000
H       -2.28550000      -4.05340000      -0.00240000
H       -2.91910000      -2.67010000       0.90080000
H        0.80360000      -2.36240000      -1.30680000
H       -0.13200000      -3.86840000      -1.30680000
H       -0.74140000      -2.45470000      -2.17440000
