19
Properties=species:S:1:pos:R:3 gdb_90631=T pbc="F F F"
C       -0.07930000       1.49040000      -0.02920000
C        0.00920000      -0.02820000       0.05860000
C        1.06240000      -0.67560000      -0.90210000
C        1.86180000      -1.15240000       0.31500000
C        0.83610000      -0.53160000       1.25530000
C        0.99810000      -2.04170000       1.19620000
N       -0.02910000      -2.87420000       0.62460000
C        1.70810000      -2.59470000       2.33580000
N        2.24070000      -3.08140000       3.24120000
H        0.91090000       1.95230000       0.05510000
H       -0.51390000       1.79780000      -0.98620000
H       -0.70700000       1.89790000       0.77100000
H       -0.98640000      -0.47380000      -0.00960000
H        0.70070000      -1.45420000      -1.57620000
H        1.60670000       0.07880000      -1.47550000
H        2.94060000      -1.19480000       0.40190000
H        0.98510000      -0.00530000       2.19110000
H        0.36100000      -3.75720000       0.30940000
H       -0.74160000      -3.08850000       1.31570000
