21
Properties=species:S:1:pos:R:3 gdb_40989=T pbc="F F F"
C       -0.04970000       1.57050000       0.16490000
C        1.50540000       1.49790000      -0.15980000
C        1.17170000       0.13510000      -0.80730000
C       -0.09810000       0.00110000       0.01740000
C       -0.30580000      -0.95020000      -1.19740000
C        0.32800000       0.09780000      -2.13990000
C        1.14170000      -0.60020000      -3.23160000
C        1.78270000      -1.75270000      -2.40690000
C        1.22700000      -1.41830000      -1.02590000
H       -0.31510000       1.94740000       1.15520000
H       -0.60830000       2.13610000      -0.58220000
H        1.93900000       2.27970000      -0.79060000
H        2.09550000       1.40750000       0.75740000
H        0.01110000      -0.49450000       0.98680000
H       -1.13840000      -1.62360000      -1.43190000
H       -0.25530000       0.97210000      -2.42840000
H        0.50750000      -0.96740000      -4.04530000
H        1.88820000       0.06650000      -3.67590000
H        1.46570000      -2.74340000      -2.74880000
H        2.87680000      -1.73400000      -2.42630000
H        1.48300000      -2.05620000      -0.17760000
