19
Properties=species:S:1:pos:R:3 gdb_86370=T pbc="F F F"
C        0.22510000       1.56940000      -0.28530000
C        0.02870000       0.09770000       0.01000000
O        0.82520000      -0.76360000      -0.83770000
C        1.37790000      -1.47720000       0.29380000
C        2.89020000      -1.54160000       0.27530000
C        0.67840000      -0.50820000       1.27780000
O        1.56610000       0.37380000       1.95270000
C        1.44930000       0.51500000       3.28960000
O        2.15560000       1.23500000       3.92550000
H        1.26770000       1.86280000      -0.15000000
H       -0.06850000       1.77340000      -1.31930000
H       -0.39890000       2.18080000       0.37490000
H       -1.03510000      -0.17010000      -0.06550000
H        0.95150000      -2.48900000       0.35230000
H        3.32740000      -0.54140000       0.28300000
H        3.26240000      -2.09270000       1.14520000
H        3.21920000      -2.06450000      -0.62760000
H       -0.00740000      -0.96610000       1.99700000
H        0.63580000      -0.10530000       3.71410000
