16
Properties=species:S:1:pos:R:3 gdb_45686=T pbc="F F F"
O       -0.00640000      -0.09610000      -0.01710000
C       -0.02300000       1.11550000      -0.02260000
C       -1.31440000       1.94670000       0.06000000
C       -1.17640000       3.21150000      -0.77730000
O       -1.88970000       4.40370000      -0.33200000
C       -0.65560000       5.17740000      -0.28550000
C        0.12280000       3.90490000      -0.48650000
C        1.20280000       3.25740000      -0.06890000
N        1.15140000       1.85200000      -0.06300000
H       -2.14440000       1.30010000      -0.22740000
H       -1.45090000       2.23770000       1.10930000
H       -1.38800000       3.01650000      -1.83870000
H       -0.61020000       5.90560000      -1.10710000
H       -0.52800000       5.70340000       0.66770000
H        2.10840000       3.70890000       0.31960000
H        1.99830000       1.30370000      -0.05140000
