23
Properties=species:S:1:pos:R:3 gdb_82898=T pbc="F F F"
C       -0.21200000       1.56570000       0.04090000
C        0.04830000       0.05780000      -0.01290000
C        0.99390000      -0.50680000      -1.10930000
C        2.27300000       0.27150000      -0.74030000
C        2.41160000      -0.43910000       0.62930000
C        2.72780000      -1.84420000       0.06100000
C        1.31720000      -2.00270000      -0.55760000
C        0.54600000      -2.06400000       0.78550000
C        0.87390000      -0.59340000       1.13280000
H        0.64900000       2.14990000       0.37320000
H       -0.52100000       1.95060000      -0.93830000
H       -1.02520000       1.77310000       0.74490000
H       -0.93320000      -0.42260000      -0.07040000
H        0.64530000      -0.45160000      -2.14140000
H        3.13220000       0.07690000      -1.38650000
H        2.12270000       1.35000000      -0.71390000
H        3.10690000      -0.01660000       1.35440000
H        3.55760000      -1.82160000      -0.64940000
H        2.93850000      -2.61900000       0.80210000
H        1.16310000      -2.81380000      -1.26920000
H       -0.52920000      -2.24300000       0.71490000
H        0.96720000      -2.81420000       1.45920000
H        0.67470000      -0.25310000       2.14960000
