15
Properties=species:S:1:pos:R:3 gdb_45243=T pbc="F F F"
O       -0.07370000      -0.04280000      -0.29680000
C       -0.01650000       1.12470000      -0.04890000
O       -1.13180000       1.90560000       0.13260000
C       -0.68490000       3.20690000       0.56900000
C       -0.04140000       3.03610000       1.96880000
C        1.38420000       2.81400000       1.43590000
O        1.57200000       4.05310000       0.68080000
C        0.63860000       3.45920000      -0.24030000
C        1.17300000       2.04800000       0.07060000
H       -1.50860000       3.90730000       0.46210000
H       -0.07160000       3.94070000       2.57810000
H       -0.48580000       2.20030000       2.51230000
H        2.19760000       2.56960000       2.11560000
H        0.59370000       3.91380000      -1.22810000
H        2.08540000       1.71720000      -0.41580000
