18
Properties=species:S:1:pos:R:3 gdb_68639=T pbc="F F F"
O       -0.06500000       1.37150000       0.06470000
C        0.03540000      -0.01160000       0.00380000
C        0.33850000      -0.81910000      -1.29140000
N       -0.38120000      -1.95990000      -0.59970000
C        0.58620000      -2.20670000       0.52670000
C        0.90570000      -0.76420000       1.02980000
C       -1.26590000      -0.88710000      -0.00720000
C       -2.05510000      -1.10220000       1.25140000
O       -2.02400000      -2.07430000       1.96500000
H        0.73850000       1.72870000       0.45550000
H       -0.22260000      -0.47340000      -2.16170000
H        1.37860000      -1.03100000      -1.55560000
H        0.11580000      -2.83090000       1.28270000
H        1.46160000      -2.72060000       0.12380000
H        1.96270000      -0.49260000       0.93790000
H        0.59050000      -0.58320000       2.06110000
H       -1.95450000      -0.51560000      -0.77520000
H       -2.70810000      -0.23320000       1.49860000
