16
Properties=species:S:1:pos:R:3 gdb_128648=T pbc="F F F"
C        0.01910000       1.34000000       0.05520000
O        0.00160000      -0.08940000      -0.06930000
C        0.64030000      -0.56040000      -1.12150000
N        1.26900000       0.07780000      -2.04000000
N        1.72790000      -0.95060000      -2.86950000
C        2.49950000      -0.67250000      -4.05100000
C        1.35260000      -2.18170000      -2.41180000
N        1.59410000      -3.31810000      -2.91160000
O        0.62560000      -1.90740000      -1.24170000
H        1.04770000       1.70100000       0.14050000
H       -0.45260000       1.80260000      -0.81600000
H       -0.54330000       1.56170000       0.96110000
H        1.93030000      -0.05410000      -4.75320000
H        3.43100000      -0.15560000      -3.79690000
H        2.73030000      -1.63220000      -4.51510000
H        1.19010000      -4.06590000      -2.35730000
