15
Properties=species:S:1:pos:R:3 gdb_123556=T pbc="F F F"
C        0.04100000       1.47380000      -0.01630000
C        1.28270000       0.66290000       0.04200000
C        1.95310000       0.36530000       1.40590000
C        0.82580000      -0.37380000       2.05480000
C       -0.23470000      -0.54840000       1.23390000
C       -1.16100000      -1.26670000       2.02510000
N       -0.67350000      -1.49400000       3.22980000
O        0.61500000      -0.91620000       3.25210000
N       -0.06420000      -0.00610000      -0.07290000
H       -0.30470000       1.95890000       0.89300000
H       -0.21700000       1.98260000      -0.94020000
H        1.90380000       0.59800000      -0.84460000
H        2.84730000      -0.25540000       1.27740000
H        2.25700000       1.27130000       1.94130000
H       -2.15070000      -1.63290000       1.79320000
