18
Properties=species:S:1:pos:R:3 gdb_48365=T pbc="F F F"
O       -0.14240000       0.22460000       0.63860000
C        0.00250000       1.27920000       0.06250000
C        1.31630000       1.98560000      -0.01940000
C        1.99110000       2.18400000       1.31040000
N        2.50360000       1.20460000       0.36470000
C        1.51710000       2.98360000      -1.13010000
C        1.27070000       2.54790000      -2.59470000
C        0.28030000       3.72790000      -2.62440000
O        0.43700000       3.94660000      -1.20220000
H       -0.84460000       1.79300000      -0.43140000
H        2.60260000       3.07180000       1.44740000
H        1.46150000       1.83330000       2.19140000
H        2.17070000       0.27860000       0.63780000
H        2.48690000       3.47760000      -0.98770000
H        2.12940000       2.60650000      -3.26350000
H        0.80580000       1.56480000      -2.69680000
H        0.61640000       4.59610000      -3.20460000
H       -0.75820000       3.50240000      -2.88990000
