19
Properties=species:S:1:pos:R:3 gdb_69976=T pbc="F F F"
C       -0.14270000       1.52390000       0.09240000
C        0.14470000       0.05850000       0.02760000
O       -0.74380000      -0.82500000       0.71990000
C        0.65270000      -0.92770000       1.00980000
C        1.29500000      -1.80090000      -0.09240000
C        0.34780000      -2.77590000      -0.82470000
O       -0.07020000      -1.74410000      -1.75560000
C        0.79950000      -0.77140000      -1.14250000
C        1.66930000      -0.02550000      -2.11910000
H        0.72210000       2.11330000      -0.22670000
H       -0.98520000       1.78020000      -0.55970000
H       -0.40530000       1.81240000       1.11390000
H        0.95340000      -0.81260000       2.04580000
H        2.34730000      -2.05550000       0.02320000
H        0.85700000      -3.59330000      -1.34820000
H       -0.49050000      -3.16480000      -0.24070000
H        1.05250000       0.58930000      -2.78420000
H        2.37000000       0.63490000      -1.59750000
H        2.24150000      -0.72400000      -2.73580000
