18
Properties=species:S:1:pos:R:3 gdb_42779=T pbc="F F F"
O       -0.03870000       0.00540000      -0.21480000
C       -0.04840000       1.17950000       0.02140000
C       -1.06290000       2.33000000       0.03360000
C       -0.82350000       2.89860000       1.46390000
C        0.72870000       2.99230000       1.37640000
C        1.94690000       2.15730000       1.89810000
C        2.45090000       2.10820000       0.39770000
C        0.97810000       2.32210000       0.04190000
N       -0.01630000       3.04100000      -0.85840000
H       -2.07490000       2.25320000      -0.35900000
H       -1.28510000       3.87640000       1.61650000
H       -1.21490000       2.20770000       2.21680000
H        1.03750000       4.03950000       1.31330000
H        2.60320000       2.63640000       2.62590000
H        1.67120000       1.16180000       2.25400000
H        3.08460000       2.96780000       0.16680000
H        2.91780000       1.18970000       0.03700000
H       -0.06830000       2.59600000      -1.77780000
