20
Properties=species:S:1:pos:R:3 gdb_26216=T pbc="F F F"
C        0.00960000       1.37470000      -0.09440000
N        0.03660000      -0.05680000      -0.29500000
C        1.20260000      -0.74280000       0.23820000
C       -1.18560000      -0.70680000      -0.17640000
C       -2.44950000      -0.15720000      -0.08310000
N       -3.31810000      -1.24040000      -0.06070000
C       -4.75970000      -1.18010000       0.02250000
C       -2.55000000      -2.35450000      -0.12120000
N       -1.26490000      -2.07970000      -0.19080000
H        0.99260000       1.79180000      -0.32990000
H       -0.72120000       1.83340000      -0.76890000
H       -0.24970000       1.66600000       0.93970000
H        1.27930000      -0.66610000       1.33680000
H        1.14760000      -1.79800000      -0.02720000
H        2.10730000      -0.30860000      -0.19930000
H       -2.81180000       0.85410000      -0.03010000
H       -5.18100000      -0.64520000      -0.83520000
H       -5.15830000      -2.19660000       0.02810000
H       -5.08000000      -0.67530000       0.94030000
H       -2.98150000      -3.34520000      -0.11070000
