19
Properties=species:S:1:pos:R:3 gdb_77069=T pbc="F F F"
C       -0.79510000       1.51550000       0.09380000
C       -0.12630000       0.14860000       0.06450000
C       -1.10980000      -0.96030000      -0.31620000
N        1.12830000       0.13940000      -0.75600000
C        1.86580000      -0.59580000       0.28600000
C        3.19410000      -0.08110000       0.61500000
N        4.23070000       0.31080000       0.94430000
C        0.73210000      -0.23800000       1.31270000
O        0.99110000       0.86280000       2.13340000
H       -0.08160000       2.28320000       0.39280000
H       -1.17630000       1.76050000      -0.90350000
H       -1.63770000       1.52720000       0.79280000
H       -1.51980000      -0.77980000      -1.31610000
H       -0.63050000      -1.94560000      -0.31960000
H       -1.94930000      -0.99710000       0.38610000
H        1.06750000      -0.33860000      -1.64930000
H        1.94480000      -1.68030000       0.13210000
H        0.36310000      -1.09870000       1.88490000
H        1.77880000       0.68670000       2.66070000
