18
Properties=species:S:1:pos:R:3 gdb_53122=T pbc="F F F"
C       -0.00670000       1.54460000      -0.03840000
C       -0.00170000       0.08990000       0.01790000
C        0.00960000      -1.11430000       0.06310000
C        0.00630000      -2.56480000       0.12090000
C        0.10170000      -3.31530000       1.44740000
C       -1.27020000      -3.48540000       2.01040000
C       -2.27230000      -2.84960000       1.06370000
C       -1.31970000      -3.36520000      -0.02840000
N       -0.76510000      -4.44070000       0.95970000
H        0.87930000       1.92650000      -0.55750000
H       -0.88840000       1.91840000      -0.57080000
H       -0.01720000       1.98230000       0.96600000
H        0.74580000      -2.98590000      -0.56900000
H        0.99680000      -3.50220000       2.02960000
H       -1.42700000      -3.81230000       3.03220000
H       -3.21140000      -3.40830000       1.06080000
H       -2.46720000      -1.77490000       1.11870000
H       -1.67500000      -3.66400000      -1.01220000
