15
Properties=species:S:1:pos:R:3 gdb_52645=T pbc="F F F"
C        0.15710000       1.44430000      -0.00460000
C        0.06520000      -0.00750000       0.00040000
C       -0.01510000      -1.20880000       0.01360000
C       -0.12750000      -2.67190000       0.00690000
O       -1.45150000      -3.13110000      -0.00990000
C        0.61730000      -3.21090000      -1.23650000
O       -0.00570000      -3.78480000      -2.10410000
C        2.04140000      -2.99960000      -1.29350000
C        3.23540000      -2.85120000      -1.30650000
H        1.20100000       1.77210000       0.04690000
H       -0.28080000       1.86700000      -0.91520000
H       -0.37030000       1.87660000       0.85260000
H        0.38350000      -3.07680000       0.89430000
H       -1.59280000      -3.47430000      -0.90760000
H        4.29020000      -2.71880000      -1.32970000
