21
Properties=species:S:1:pos:R:3 gdb_120685=T pbc="F F F"
C        0.01450000       1.45190000       0.05270000
C       -0.14820000      -0.02160000       0.38210000
O       -1.11750000      -0.56990000      -0.49950000
C       -1.34360000      -1.92020000      -0.29730000
C       -2.29500000      -2.36420000       0.77920000
C       -2.69920000      -2.45980000      -0.69450000
C       -3.71310000      -1.59620000      -1.22560000
C       -4.57630000      -0.89500000      -1.68810000
C       -5.61120000      -0.03690000      -2.24610000
H        0.75730000       1.90970000       0.71280000
H        0.34240000       1.57990000      -0.98270000
H       -0.93550000       1.97900000       0.17800000
H        0.81010000      -0.55430000       0.26500000
H       -0.46890000      -0.15800000       1.42650000
H       -0.48350000      -2.56000000      -0.50550000
H       -2.10160000      -3.28490000       1.31850000
H       -2.78110000      -1.58160000       1.34960000
H       -2.68230000      -3.45980000      -1.11990000
H       -6.04360000      -0.47450000      -3.15310000
H       -6.43000000       0.12250000      -1.53510000
H       -5.20990000       0.94690000      -2.51490000
