18
Properties=species:S:1:pos:R:3 gdb_92391=T pbc="F F F"
C        0.20920000       1.52700000      -0.14540000
C        0.06340000       0.04210000       0.09710000
O        0.84130000      -0.77580000      -0.81240000
C        1.36080000      -1.58900000       0.25070000
C        2.77540000      -1.16290000       0.68730000
C        2.15700000      -0.16720000       1.71550000
C        0.71890000      -0.64730000       1.33120000
C       -0.15230000      -1.07530000       2.39550000
N       -0.85270000      -1.41870000       3.25020000
H        1.25330000       1.84750000      -0.10780000
H       -0.18220000       1.77330000      -1.13720000
H       -0.36490000       2.09170000       0.59650000
H       -0.99580000      -0.24330000       0.03750000
H        1.12040000      -2.64840000       0.13630000
H        3.34580000      -1.96690000       1.15860000
H        3.36540000      -0.72800000      -0.12120000
H        2.40540000      -0.39640000       2.75230000
H        2.34480000       0.89350000       1.54390000
