17
Properties=species:S:1:pos:R:3 gdb_37155=T pbc="F F F"
C       -0.08860000       1.57340000       0.01670000
C        1.44940000       1.28540000      -0.02560000
C        1.31850000       0.13830000       1.02220000
C        1.85000000      -1.02930000       0.16460000
C        0.75470000      -2.11970000       0.29790000
O       -0.06770000      -2.02400000       1.47920000
C       -0.51650000      -1.36990000       0.27970000
C        0.03490000       0.03780000       0.13580000
C        1.25330000      -0.01320000      -0.85930000
H       -0.46210000       2.10680000       0.89600000
H       -0.54300000       1.96800000      -0.89750000
H        2.25700000       2.01230000      -0.11010000
H        1.30510000       0.23540000       2.10630000
H        2.89340000      -1.34800000       0.15590000
H        0.87370000      -3.11940000      -0.10890000
H       -1.44100000      -1.73120000      -0.15820000
H        1.17590000      -0.09550000      -1.94530000
