16
Properties=species:S:1:pos:R:3 gdb_14436=T pbc="F F F"
O       -0.10810000       1.39450000      -0.06330000
C       -0.00050000       0.01650000      -0.05860000
C        0.75090000      -0.81190000      -1.09480000
C       -0.21390000      -2.01400000      -0.73730000
C        0.43720000      -2.80360000       0.38110000
C        0.44150000      -2.06020000       1.49190000
C       -0.29910000      -0.79070000       1.23900000
C       -1.13090000      -0.96770000      -0.01360000
H        0.64990000       1.75980000       0.40640000
H        0.53330000      -0.42220000      -2.09230000
H        1.82740000      -0.97990000      -0.98140000
H       -0.61020000      -2.57740000      -1.58040000
H        0.94540000      -3.74810000       0.23180000
H        0.93020000      -2.29690000       2.42890000
H       -0.69440000      -0.18080000       2.04340000
H       -2.20290000      -0.83520000      -0.09250000
