17
Properties=species:S:1:pos:R:3 gdb_17584=T pbc="F F F"
C       -0.02990000       1.51850000       0.12240000
C       -0.03270000       0.02190000       0.01340000
C        1.18050000      -0.79920000      -0.39530000
C        0.61680000      -1.01400000       0.97440000
O        1.39410000      -0.78750000       2.09100000
C       -0.63910000      -1.84250000       0.92400000
N       -1.75350000      -0.96520000       1.39060000
C       -1.25980000      -0.85960000      -0.00930000
H        0.92090000       1.87480000       0.53310000
H       -0.17100000       2.00150000      -0.85180000
H       -0.83170000       1.85490000       0.78770000
H        1.11470000      -1.56870000      -1.16060000
H        2.11380000      -0.24380000      -0.40200000
H        0.79620000      -0.51550000       2.79820000
H       -0.73930000      -2.92210000       0.93960000
H       -2.60500000      -1.52970000       1.36830000
H       -1.91580000      -1.07760000      -0.84470000
