19
Properties=species:S:1:pos:R:3 gdb_39647=T pbc="F F F"
C       -0.15880000       1.24680000      -0.29010000
C        1.33800000       1.48260000      -0.00950000
C        1.24290000       0.17200000       0.80950000
O       -0.13000000      -0.03000000       0.38220000
C        2.12500000      -0.97790000       0.38500000
C        3.55350000      -1.22410000       0.95550000
C        2.96310000      -1.71040000       2.30120000
C        2.16900000      -2.34200000       1.13350000
O        3.46180000      -2.61580000       0.45700000
H       -0.83960000       1.95220000       0.20370000
H       -0.45310000       1.14960000      -1.34130000
H        1.98140000       1.40990000      -0.88890000
H        1.59350000       2.38310000       0.55040000
H        1.27940000       0.34120000       1.89270000
H        2.08830000      -1.11710000      -0.69900000
H        4.47920000      -0.68180000       0.75870000
H        3.59860000      -2.41000000       2.84470000
H        2.46710000      -0.99500000       2.95960000
H        1.42850000      -3.14110000       1.14620000
