13
Properties=species:S:1:pos:R:3 gdb_42541=T pbc="F F F"
O        0.06640000       0.07490000       0.01930000
C        0.01490000       1.26480000      -0.04180000
C       -1.09150000       2.28350000       0.02260000
C       -0.12600000       3.21270000       0.79670000
C        1.04660000       2.40990000       0.09440000
N        0.82680000       3.14110000      -1.20660000
C       -0.48060000       3.54250000      -0.62180000
C       -1.29930000       4.58790000      -1.14540000
N       -1.94620000       5.45130000      -1.56200000
H       -2.15870000       2.16680000       0.14630000
H       -0.27190000       3.70000000       1.75000000
H        2.06400000       2.25320000       0.43790000
H        1.41650000       3.97380000      -1.19820000
