18
Properties=species:S:1:pos:R:3 gdb_33933=T pbc="F F F"
C        0.06070000      -1.17750000       0.03680000
C        0.02740000       0.02460000       0.03430000
C        0.00130000       1.45900000       0.01230000
C        0.40520000       2.17610000      -1.27080000
C        1.27980000       2.29490000      -0.05610000
C        1.08470000       3.48090000       0.88850000
C       -0.30800000       3.29510000       1.49670000
C       -1.51610000       3.37180000       0.63540000
N       -0.93490000       2.06570000       0.97050000
H        0.08380000      -2.23870000       0.04730000
H        0.75450000       1.53390000      -2.07130000
H       -0.16450000       3.03100000      -1.61340000
H        2.24700000       1.80610000      -0.07440000
H        1.83730000       3.44600000       1.68140000
H        1.19710000       4.44620000       0.38220000
H       -0.41030000       3.46220000       2.56610000
H       -2.48950000       3.55120000       1.08430000
H       -1.41920000       3.76670000      -0.37030000
