18
Properties=species:S:1:pos:R:3 gdb_56922=T pbc="F F F"
C        0.16330000       1.38960000       0.20850000
C       -0.17850000      -0.09830000      -0.01530000
C       -1.62500000      -0.29820000      -0.10930000
C       -2.81420000      -0.44070000      -0.20790000
C        0.51720000      -0.63450000      -1.26190000
C        1.96070000      -1.03010000      -1.22760000
C        0.89210000      -2.10430000      -1.39350000
C        0.64860000      -3.01800000      -0.31260000
N        0.46160000      -3.75330000       0.56120000
H        1.24450000       1.51960000       0.31180000
H       -0.18040000       1.99670000      -0.63430000
H       -0.32240000       1.76190000       1.11360000
H        0.18750000      -0.66800000       0.84930000
H       -3.86410000      -0.58390000      -0.27800000
H        0.15910000      -0.19050000      -2.18620000
H        2.58910000      -0.82150000      -2.08550000
H        2.47270000      -1.00200000      -0.27210000
H        0.78410000      -2.54940000      -2.37650000
