19
Properties=species:S:1:pos:R:3 gdb_111866=T pbc="F F F"
O        0.04440000       1.43210000      -0.19280000
C        0.03790000       0.08280000       0.26240000
C       -1.32740000      -0.55360000       0.10620000
C       -1.82860000      -1.22050000      -1.17210000
C       -0.81270000      -1.73130000      -2.17570000
O        0.14580000      -2.48350000      -1.42770000
C       -0.48200000      -2.99690000      -0.25980000
C       -1.61590000      -2.03490000       0.07630000
O       -2.70490000      -2.55560000       0.77330000
H       -0.19150000       1.42090000      -1.12600000
H        0.80790000      -0.51490000      -0.23940000
H        0.30070000       0.13840000       1.32480000
H       -2.11390000       0.00810000       0.60600000
H       -2.83310000      -0.99570000      -1.51020000
H       -1.31510000      -2.36300000      -2.92500000
H       -0.25700000      -0.95210000      -2.71000000
H       -0.92550000      -3.99020000      -0.43140000
H        0.29110000      -3.08960000       0.51120000
H       -2.51730000      -2.49290000       1.71590000
