19
Properties=species:S:1:pos:R:3 gdb_81143=T pbc="F F F"
C       -0.17860000       1.63860000      -0.01560000
C        0.02630000       0.13350000       0.01340000
C        1.16740000      -0.60550000      -0.74570000
C        2.45520000       0.07080000      -0.24510000
C        2.12810000       0.07890000       1.28180000
C        0.74040000      -0.60200000       1.19930000
N        1.07310000      -1.74240000       0.25430000
C        0.04980000      -0.90210000       2.43450000
N       -0.52560000      -1.12480000       3.41250000
H        0.74260000       2.19650000       0.17040000
H       -0.56470000       1.95050000      -0.99200000
H       -0.91120000       1.94060000       0.74020000
H       -0.92100000      -0.37980000      -0.18260000
H        1.09550000      -0.86020000      -1.80250000
H        3.33240000      -0.53480000      -0.47620000
H        2.59900000       1.07060000      -0.66070000
H        2.81840000      -0.52780000       1.86820000
H        2.07460000       1.07750000       1.71910000
H        0.20070000      -2.24200000       0.07050000
