19
Properties=species:S:1:pos:R:3 gdb_96434=T pbc="F F F"
C       -0.06360000       1.52740000      -0.08120000
C        0.03990000       0.01340000      -0.00260000
O        0.69870000      -0.44570000      -1.18160000
C        0.77390000      -1.84510000      -1.22270000
O        1.51200000      -2.37700000      -0.15330000
C        0.91950000      -2.04820000       1.09380000
C        0.78470000      -0.51980000       1.25020000
C        2.15000000       0.12320000       1.41150000
O        2.41320000       0.93490000       2.26350000
H        0.92590000       1.98890000      -0.13380000
H       -0.62570000       1.81550000      -0.97320000
H       -0.57680000       1.91950000       0.80140000
H       -0.97580000      -0.42100000       0.02290000
H       -0.24660000      -2.27530000      -1.22120000
H        1.29940000      -2.11460000      -2.14040000
H       -0.07840000      -2.51030000       1.17690000
H        1.55880000      -2.48260000       1.86720000
H        0.19970000      -0.27960000       2.14420000
H        2.91300000      -0.21310000       0.67920000
