19
Properties=species:S:1:pos:R:3 gdb_81749=T pbc="F F F"
C       -0.42200000       1.54360000       0.32640000
C       -0.13160000       0.05300000       0.22890000
C        0.27850000      -0.50150000      -1.14280000
N        1.56850000       0.11340000      -1.49350000
C        1.55040000      -1.06520000      -0.58140000
C        2.22890000      -2.27190000      -0.91630000
N        2.78410000      -3.25660000      -1.16830000
C        1.22000000      -0.53250000       0.82780000
C        2.23690000       0.39210000       1.47860000
H        0.37270000       2.12970000      -0.14050000
H       -1.36400000       1.78610000      -0.17740000
H       -0.51620000       1.85840000       1.37070000
H       -0.97200000      -0.52410000       0.62500000
H       -0.35980000      -0.92650000      -1.90820000
H        1.83470000      -0.21760000      -2.42060000
H        0.98640000      -1.37050000       1.48960000
H        2.54620000       1.18320000       0.79210000
H        1.82010000       0.85670000       2.37810000
H        3.12880000      -0.16830000       1.77810000
