23
Properties=species:S:1:pos:R:3 gdb_52836=T pbc="F F F"
C        0.07200000       1.49680000       0.04360000
C        0.05450000       0.04020000       0.02860000
C        0.04400000      -1.16540000       0.01630000
C        0.05090000      -2.62360000      -0.00340000
C        0.99900000      -3.14740000      -1.08700000
C        0.22990000      -3.21780000       1.44010000
C       -1.30830000      -3.34560000       1.55660000
C       -1.40560000      -3.24380000       0.01250000
C       -2.56740000      -2.49930000      -0.62120000
H        1.07690000       1.88530000      -0.15690000
H       -0.59950000       1.91330000      -0.71570000
H       -0.24510000       1.89070000       1.01580000
H        2.02060000      -2.79200000      -0.91830000
H        1.01170000      -4.24250000      -1.08750000
H        0.68670000      -2.80610000      -2.07920000
H        0.72180000      -4.19410000       1.39410000
H        0.74920000      -2.59070000       2.16660000
H       -1.71090000      -4.24400000       2.03050000
H       -1.74790000      -2.46760000       2.03920000
H       -1.32850000      -4.24840000      -0.42060000
H       -2.64050000      -1.48060000      -0.22930000
H       -2.45540000      -2.43160000      -1.70910000
H       -3.51310000      -3.01390000      -0.41620000
