23
Properties=species:S:1:pos:R:3 gdb_86435=T pbc="F F F"
C       -0.06230000       1.55460000      -0.02690000
C       -0.00150000       0.01890000      -0.01360000
C        0.66390000      -0.52760000      -1.28620000
C        0.97900000      -2.01160000      -1.15060000
O        1.50020000      -2.45780000      -2.39700000
C        1.96620000      -2.23940000      -0.00040000
C        1.58480000      -1.48630000       1.25600000
C        2.26490000      -1.92540000       2.52430000
C        0.69560000      -0.49010000       1.22600000
H        0.94500000       1.98530000      -0.03670000
H       -0.59380000       1.91760000      -0.91290000
H       -0.58160000       1.93830000       0.85770000
H       -1.04230000      -0.34330000       0.01090000
H        0.02210000      -0.36730000      -2.15870000
H        1.60230000       0.01040000      -1.47470000
H        0.04230000      -2.54770000      -0.92020000
H        1.71890000      -3.39130000      -2.31040000
H        2.04260000      -3.31370000       0.22350000
H        2.96740000      -1.93250000      -0.33730000
H        3.35700000      -1.86030000       2.42990000
H        1.96190000      -1.31520000       3.37940000
H        2.03720000      -2.97450000       2.75460000
H        0.44220000       0.01630000       2.15690000
