17
Properties=species:S:1:pos:R:3 gdb_67822=T pbc="F F F"
O       -0.02670000       1.40200000      -0.06050000
C        0.03650000       0.00810000      -0.10610000
C        0.59260000      -0.63770000      -1.34290000
C        0.07860000      -1.87010000      -1.43080000
C       -0.72270000      -2.14270000      -0.17730000
C        0.32730000      -2.19740000       1.00380000
C        0.28210000      -0.70050000       1.31610000
O       -1.13940000      -0.53620000       1.60020000
C       -1.29720000      -0.71700000       0.18250000
H        0.84080000       1.74140000       0.18080000
H        1.27920000      -0.15300000      -2.02570000
H        0.29060000      -2.61140000      -2.19190000
H       -1.42920000      -2.96990000      -0.21110000
H       -0.03370000      -2.76160000       1.86660000
H        1.29680000      -2.58350000       0.68320000
H        0.94300000      -0.26950000       2.06870000
H       -2.25590000      -0.40080000      -0.22920000
