19
Properties=species:S:1:pos:R:3 gdb_68606=T pbc="F F F"
C        0.06470000       1.54110000       0.13220000
C       -0.01350000       0.04610000       0.03550000
C        0.74350000      -0.70580000      -1.08720000
C        0.50560000      -2.16700000      -0.58400000
C       -0.31820000      -1.81610000       0.67150000
O        0.42600000      -0.69040000       1.23330000
C       -1.30560000      -0.77960000       0.13950000
C       -2.66750000      -0.43110000       0.49830000
O       -2.32300000      -0.93830000      -0.81620000
H        1.10650000       1.86880000       0.20810000
H       -0.37010000       1.99800000      -0.76270000
H       -0.47620000       1.90510000       1.00990000
H        0.31100000      -0.51530000      -2.07290000
H        1.79960000      -0.42730000      -1.10210000
H       -0.05700000      -2.78110000      -1.29170000
H        1.43170000      -2.68200000      -0.32180000
H       -0.57150000      -2.59360000       1.39090000
H       -3.26100000      -1.10680000       1.11170000
H       -2.97910000       0.61180000       0.52050000
