16
Properties=species:S:1:pos:R:3 gdb_67434=T pbc="F F F"
O       -0.19310000       1.39240000      -0.00760000
C       -0.01280000       0.04200000       0.01450000
C        0.04870000      -1.01920000      -1.01030000
N        1.25720000      -1.60900000      -0.47360000
C        0.92980000      -0.95770000       0.83230000
C       -0.35400000      -1.66170000       1.36060000
C       -1.06880000      -1.04070000       0.17220000
C       -2.48580000      -0.99610000      -0.16640000
O       -3.34880000      -1.61460000       0.41740000
H        0.52420000       1.79180000      -0.51450000
H       -0.25030000      -1.04260000      -2.05040000
H        1.24070000      -2.62890000      -0.42360000
H        1.76460000      -0.70810000       1.48400000
H       -0.31670000      -2.75250000       1.44830000
H       -0.70550000      -1.22610000       2.29850000
H       -2.73460000      -0.33960000      -1.03190000
