19
Properties=species:S:1:pos:R:3 gdb_37072=T pbc="F F F"
C        0.04140000       1.42210000      -0.06640000
C        1.36870000       0.71170000       0.00630000
C        1.96860000       0.51790000       1.38230000
O        0.89240000       0.05770000       2.20580000
C       -0.01290000      -0.69760000       1.39460000
C        0.07380000      -0.08270000       0.01440000
C        0.05800000      -0.84050000      -1.29570000
O        1.00680000      -0.17270000      -2.13350000
C        2.03950000       0.37500000      -1.30800000
H       -0.28440000       1.96220000       0.81620000
H       -0.23610000       1.86480000      -1.01700000
H        2.78350000      -0.22400000       1.33500000
H        2.35720000       1.42630000       1.85350000
H        0.27870000      -1.76040000       1.35060000
H       -0.99440000      -0.62970000       1.87430000
H        0.34390000      -1.89180000      -1.12420000
H       -0.89680000      -0.82640000      -1.83080000
H        2.45480000       1.22950000      -1.85160000
H        2.84870000      -0.35540000      -1.13970000
