13
Properties=species:S:1:pos:R:3 gdb_19042=T pbc="F F F"
O       -0.03570000      -0.00870000      -0.07430000
C       -0.02950000       1.17690000       0.01650000
O       -1.16320000       1.94310000       0.09690000
C       -0.74510000       3.25990000       0.46950000
C       -0.09610000       3.19470000       1.88390000
C        1.24550000       2.98020000       1.17360000
C        0.67690000       3.40590000      -0.13380000
N        1.13490000       2.02720000       0.01900000
H       -1.54320000       3.96630000       0.26070000
H       -0.11100000       4.16910000       2.37860000
H       -0.47480000       2.42260000       2.55880000
H        2.24090000       3.10450000       1.57980000
H        1.04600000       4.02440000      -0.94160000
