18
Properties=species:S:1:pos:R:3 gdb_94048=T pbc="F F F"
C       -0.28790000       1.57840000       0.13620000
C        0.19780000       0.14630000       0.03610000
C        1.03640000      -0.19500000      -1.20420000
O        1.95910000      -1.17770000      -0.74070000
C        1.87300000      -1.23230000       0.67120000
C        3.26480000      -1.13800000       1.30870000
C        4.10290000      -2.29000000       0.99420000
N        4.76180000      -3.20800000       0.75530000
O        1.12290000      -0.12620000       1.09310000
H        0.55550000       2.27290000       0.08210000
H       -0.97970000       1.80170000      -0.68180000
H       -0.81280000       1.74140000       1.08080000
H       -0.65090000      -0.55180000       0.11240000
H        0.44060000      -0.61110000      -2.02240000
H        1.57930000       0.68640000      -1.57170000
H        1.38150000      -2.17660000       0.96260000
H        3.74420000      -0.22050000       0.95460000
H        3.14710000      -1.06190000       2.39460000
