16
Properties=species:S:1:pos:R:3 gdb_16432=T pbc="F F F"
C       -0.15140000       1.61450000      -0.01540000
C       -0.05520000       0.09560000       0.00510000
C        1.15310000      -0.59350000      -0.67000000
C        2.11210000      -0.34770000       0.53560000
O        2.52260000      -1.74010000       0.64780000
C        1.10830000      -1.80990000       0.30730000
C        0.68610000      -0.59440000       1.17990000
O        0.33380000      -0.68320000       2.50470000
H        0.80870000       2.08450000       0.22620000
H       -0.45850000       1.97980000      -1.00090000
H       -0.89210000       1.97340000       0.70860000
H       -1.02020000      -0.36560000      -0.23600000
H        1.43920000      -0.62490000      -1.71830000
H        2.85710000       0.42930000       0.70170000
H        0.63510000      -2.78420000       0.19120000
H        0.27520000       0.20580000       2.87180000
