16
Properties=species:S:1:pos:R:3 gdb_90220=T pbc="F F F"
O        0.16240000       1.25900000      -0.36170000
C        0.07730000      -0.09210000      -0.01680000
C        0.18130000      -0.39720000       1.54010000
C       -1.35710000      -0.48490000       1.57650000
O       -2.12180000       0.77680000       1.53560000
C       -2.73070000      -0.04260000       0.49140000
C       -2.56840000      -1.41940000       1.25660000
N       -1.91300000      -2.07090000       0.06750000
C       -1.39090000      -0.65510000       0.04070000
H       -0.49430000       1.72340000       0.17550000
H        0.77310000      -0.63980000      -0.65750000
H        0.66200000      -1.35630000       1.75040000
H        0.63610000       0.37830000       2.16040000
H       -3.59020000       0.36140000      -0.04920000
H       -3.27860000      -1.94470000       1.90230000
H       -1.18410000      -2.71000000       0.39850000
