16
Properties=species:S:1:pos:R:3 gdb_99244=T pbc="F F F"
C       -0.19420000       1.12710000       0.36810000
O        0.17960000      -0.22240000       0.05410000
C        0.89950000      -0.85410000       0.99630000
O        1.24520000      -0.37010000       2.04000000
C        1.21670000      -2.26960000       0.52920000
O        1.93760000      -2.98120000       1.51530000
C        1.17140000      -3.44870000       2.54500000
N        1.97210000      -4.03550000       3.47970000
O       -0.03380000      -3.39020000       2.57790000
H        0.69340000       1.74620000       0.52000000
H       -0.76720000       1.48280000      -0.48790000
H       -0.80270000       1.15300000       1.27520000
H        0.28330000      -2.77740000       0.27480000
H        1.85600000      -2.22650000      -0.35590000
H        2.95020000      -3.79870000       3.48260000
H        1.53770000      -4.22860000       4.36600000
