18
Properties=species:S:1:pos:R:3 gdb_124728=T pbc="F F F"
C       -0.14060000       1.45960000       0.00760000
C       -0.02830000      -0.07900000       0.00800000
N        0.66390000      -0.65410000      -1.15180000
C        0.65440000      -0.54990000       1.25740000
N        0.13520000      -1.10370000       2.30930000
C        1.23680000      -1.27580000       3.12550000
C        1.16020000      -1.89410000       4.47800000
N        2.36170000      -0.85400000       2.61060000
O        1.97640000      -0.35910000       1.35320000
H        0.85300000       1.91880000       0.01070000
H       -0.67200000       1.79010000      -0.89040000
H       -0.69050000       1.82100000       0.88250000
H       -1.03390000      -0.50870000       0.04360000
H        0.19950000      -0.34820000      -2.00190000
H        1.61370000      -0.29420000      -1.19580000
H        0.76370000      -2.91120000       4.40600000
H        2.14870000      -1.92500000       4.93830000
H        0.48130000      -1.32240000       5.11780000
