19
Properties=species:S:1:pos:R:3 gdb_27539=T pbc="F F F"
N        0.07010000       1.40050000       0.06350000
C       -0.00830000      -0.00690000      -0.01990000
C       -1.05730000      -0.89650000       0.02320000
C       -0.52570000      -2.21080000      -0.18510000
C        0.83370000      -2.06820000      -0.34270000
N        1.13790000      -0.72820000      -0.23960000
C       -1.30450000      -3.47250000      -0.22260000
C       -0.66390000      -4.80100000       0.09400000
C       -1.66430000      -4.20890000       1.05340000
H       -0.83940000       1.81370000      -0.10290000
H        0.38230000       1.71410000       0.97870000
H       -2.09100000      -0.64570000       0.21010000
H        1.60190000      -2.80140000      -0.52640000
H        2.03550000      -0.30920000      -0.40920000
H       -2.07540000      -3.50350000      -0.98980000
H       -0.95690000      -5.66440000      -0.49290000
H        0.37720000      -4.80250000       0.39670000
H       -1.28670000      -3.80120000       1.98450000
H       -2.64590000      -4.66520000       1.12490000
