21
Properties=species:S:1:pos:R:3 gdb_105398=T pbc="F F F"
C       -0.31870000       1.41380000      -1.09610000
C       -0.08610000       0.30550000      -0.06020000
C       -1.35020000      -0.47090000       0.27290000
C       -2.36440000       0.30010000       1.11650000
C       -3.69510000      -0.39750000       1.31250000
O       -4.26450000      -0.48020000       2.37160000
O       -1.92360000      -1.21130000      -0.82100000
C       -1.39220000      -1.94820000       0.29200000
C       -0.23870000      -2.87990000       0.02590000
H        0.62450000       1.90590000      -1.34960000
H       -0.74360000       0.99390000      -2.01220000
H       -1.00190000       2.18600000      -0.72880000
H        0.67480000      -0.37970000      -0.44120000
H        0.31430000       0.73300000       0.86770000
H       -1.94700000       0.54370000       2.09850000
H       -2.58860000       1.25100000       0.61070000
H       -4.13390000      -0.81600000       0.38260000
H       -2.16840000      -2.39350000       0.92120000
H        0.50410000      -2.43840000      -0.64030000
H        0.24990000      -3.15950000       0.96540000
H       -0.60650000      -3.79770000      -0.44450000
