19
Properties=species:S:1:pos:R:3 gdb_91777=T pbc="F F F"
C       -0.30370000       1.49610000       0.09590000
C        0.11880000       0.05390000      -0.02090000
C       -0.69270000      -1.05520000       0.66120000
C        0.71390000      -0.80150000       1.09290000
C        1.77840000      -1.72970000       0.50590000
C        1.58400000      -1.68890000      -1.01670000
O        0.83750000      -2.82810000      -1.44400000
C        0.76450000      -0.40190000      -1.28600000
O        0.69070000       0.13540000      -2.36690000
H        0.55080000       2.17160000      -0.01620000
H       -1.02520000       1.74720000      -0.68770000
H       -0.76850000       1.69250000       1.06650000
H       -1.49420000      -0.69620000       1.29840000
H       -0.91380000      -1.96130000       0.10920000
H        0.89210000      -0.35960000       2.06710000
H        2.77670000      -1.35850000       0.75880000
H        1.69880000      -2.75580000       0.87680000
H        2.53690000      -1.62990000      -1.55840000
H        0.63170000      -2.69740000      -2.37740000
