23
Properties=species:S:1:pos:R:3 gdb_113699=T pbc="F F F"
C       -0.31150000       1.36720000      -0.23160000
C       -0.07390000      -0.14130000      -0.06160000
C        0.39920000      -0.42320000       1.36530000
O       -1.35330000      -0.81960000      -0.16540000
C        0.85640000      -0.62250000      -1.18060000
C        2.28870000      -1.07260000      -1.01020000
C        1.24780000      -2.06320000      -1.46740000
C        0.83940000      -3.23790000      -0.59770000
O       -0.53970000      -3.53350000      -0.66910000
H        0.62830000       1.92180000      -0.14620000
H       -0.73690000       1.58570000      -1.21790000
H       -1.00610000       1.73250000       0.52950000
H       -0.34220000      -0.03810000       2.07070000
H        0.51320000      -1.49130000       1.55580000
H        1.35320000       0.07170000       1.56200000
H       -1.69960000      -0.65190000      -1.04970000
H        0.68710000      -0.05330000      -2.09340000
H        3.03400000      -0.71290000      -1.71130000
H        2.66060000      -1.19330000       0.00220000
H        1.25100000      -2.30390000      -2.52750000
H        1.36570000      -4.13400000      -0.94690000
H        1.16910000      -3.07430000       0.44010000
H       -1.00240000      -2.72520000      -0.39540000
