16
Properties=species:S:1:pos:R:3 gdb_13306=T pbc="F F F"
C       -0.04310000      -1.20920000      -0.08280000
C       -0.02380000      -0.00770000      -0.09060000
C        0.01200000       1.44820000      -0.07880000
C        1.43310000       2.02120000       0.13590000
O        2.27840000       1.67310000      -0.95910000
C        2.81960000       2.84300000      -1.56690000
C        2.24270000       3.99140000      -0.78910000
C        1.46590000       3.52660000       0.18170000
H       -0.06080000      -2.27060000      -0.08600000
H       -0.37940000       1.84720000      -1.02210000
H       -0.63860000       1.82580000       0.72130000
H        1.84010000       1.57640000       1.05790000
H        3.91980000       2.81540000      -1.51660000
H        2.54670000       2.87380000      -2.63320000
H        2.45990000       5.02830000      -1.01210000
H        0.91780000       4.10500000       0.91470000
