19
Properties=species:S:1:pos:R:3 gdb_111946=T pbc="F F F"
C        0.09350000       1.52830000      -0.09260000
C        0.00600000       0.00110000      -0.04290000
C       -1.43650000      -0.53180000       0.09930000
C       -2.29070000      -0.25050000      -1.12000000
C       -2.53650000      -1.33470000      -1.87180000
C       -1.89340000      -2.50280000      -1.24460000
O       -1.63570000      -3.59320000      -1.70750000
C       -1.50310000      -2.07940000       0.17700000
O       -0.33820000      -2.72440000       0.61290000
H        1.13690000       1.85470000      -0.13510000
H       -0.41430000       1.94120000      -0.97060000
H       -0.35870000       1.98230000       0.79670000
H        0.45790000      -0.43260000      -0.94250000
H        0.58430000      -0.38360000       0.80180000
H       -1.88100000      -0.06610000       0.98790000
H       -2.63190000       0.75180000      -1.35740000
H       -3.06380000      -1.37210000      -2.81620000
H       -2.35920000      -2.34770000       0.82190000
H       -0.26120000      -3.51580000       0.05850000
