19
Properties=species:S:1:pos:R:3 gdb_18535=T pbc="F F F"
O       -0.03580000       1.45950000      -0.05190000
C        0.01030000       0.04510000       0.05360000
C       -1.40640000      -0.48560000      -0.13170000
C       -1.48530000      -2.00470000      -0.02100000
C       -1.31710000      -2.71790000       1.35380000
N       -2.60500000      -3.48430000       1.18830000
C       -3.65830000      -2.45670000       1.12610000
C       -2.85110000      -2.68940000      -0.08730000
H        0.85420000       1.80060000       0.07530000
H        0.67330000      -0.39150000      -0.71190000
H        0.40090000      -0.26830000       1.03610000
H       -2.05350000      -0.00930000       0.61350000
H       -1.77270000      -0.16520000      -1.11500000
H       -0.80870000      -2.45970000      -0.75230000
H       -0.47050000      -3.40500000       1.40550000
H       -1.30820000      -2.07500000       2.24200000
H       -4.65960000      -2.87650000       1.14340000
H       -3.54220000      -1.54350000       1.70610000
H       -3.27030000      -3.15790000      -0.97280000
