20
Properties=species:S:1:pos:R:3 gdb_80290=T pbc="F F F"
C       -0.11690000       1.56210000       0.05920000
C        0.03110000       0.05760000       0.05490000
C        1.34400000      -0.66480000      -0.21890000
C        2.65820000       0.08230000      -0.07610000
C        2.69960000       0.54650000       1.39060000
O        3.51290000       1.28060000       1.90510000
N        1.60910000      -0.01210000       2.01450000
C        0.71020000      -0.73900000       1.15700000
C        0.09460000      -1.98350000       1.74450000
H        0.71450000       2.06470000       0.55920000
H       -0.17080000       1.95020000      -0.96380000
H       -1.03690000       1.85930000       0.57410000
H       -0.82490000      -0.45950000      -0.37400000
H        1.31360000      -1.53320000      -0.86710000
H        3.51880000      -0.56540000      -0.27160000
H        2.76120000       0.95550000      -0.72720000
H        1.35820000       0.29030000       2.94340000
H       -0.58430000      -1.74320000       2.57180000
H       -0.48750000      -2.51750000       0.98810000
H        0.86670000      -2.65940000       2.12710000
