20
Properties=species:S:1:pos:R:3 gdb_111392=T pbc="F F F"
C        0.11740000       1.52380000       0.05450000
C        0.07040000      -0.00520000      -0.03960000
C       -1.33830000      -0.58610000       0.06570000
C       -1.52600000      -2.09700000      -0.06950000
C       -0.98430000      -2.83970000       1.08310000
N       -2.31500000      -2.21510000       1.22740000
C       -2.08900000      -0.75270000       1.45070000
C       -1.40900000      -0.31150000       2.72120000
O       -0.89410000      -1.03280000       3.53770000
H        1.14110000       1.89340000      -0.05590000
H       -0.49100000       1.98720000      -0.73010000
H       -0.25890000       1.88310000       1.01830000
H        0.48900000      -0.32140000      -1.00420000
H        0.71810000      -0.44470000       0.72790000
H       -1.99740000      -0.05600000      -0.62810000
H       -1.86100000      -2.59290000      -0.97500000
H       -1.05060000      -3.92250000       1.04190000
H       -0.15130000      -2.46230000       1.66330000
H       -3.05520000      -0.23570000       1.42080000
H       -1.42330000       0.79500000       2.86480000
