11
Properties=species:S:1:pos:R:3 gdb_20307=T pbc="F F F"
C        0.00470000      -1.19860000      -0.00330000
C        0.03460000       0.00400000       0.00300000
C        0.01670000       1.42840000       0.01030000
C       -1.20020000       2.13520000       0.03030000
N       -1.24260000       3.46000000       0.03750000
N       -0.09350000       4.13550000       0.02550000
C        1.03820000       3.43090000       0.00680000
N        1.16940000       2.10270000      -0.00170000
H       -0.00540000      -2.26140000      -0.00980000
H       -2.15350000       1.61730000       0.04050000
H        1.95350000       4.01570000      -0.00260000
