16
Properties=species:S:1:pos:R:3 gdb_48467=T pbc="F F F"
O       -0.13990000       0.06810000       0.22840000
C       -0.03510000       1.24350000       0.01540000
C        1.31570000       1.98120000      -0.01050000
C        1.48990000       2.81250000       1.31750000
C        2.97920000       2.64430000       1.70480000
C        3.40230000       1.41600000       0.94030000
C        2.51680000       1.05040000       0.01930000
C        1.33190000       2.85240000      -1.19310000
N        1.32190000       3.53030000      -2.13000000
H       -0.91780000       1.89690000      -0.15170000
H        1.18300000       3.85150000       1.19330000
H        0.85540000       2.36310000       2.08710000
H        3.57780000       3.51390000       1.40380000
H        3.10690000       2.53740000       2.78690000
H        4.34640000       0.91430000       1.11950000
H        2.59940000       0.22170000      -0.67070000
