14
Properties=species:S:1:pos:R:3 gdb_131561=T pbc="F F F"
O        0.20260000       1.40230000       0.16500000
C        0.03460000       0.00320000       0.03560000
C       -1.45320000      -0.43930000      -0.19640000
O       -1.63090000      -0.79070000      -1.60340000
C       -0.38180000      -0.96780000      -2.08630000
C        0.25520000      -1.40940000      -3.19690000
O        1.59720000      -1.28120000      -2.98070000
N        1.84110000      -0.75290000      -1.71510000
C        0.64960000      -0.57800000      -1.20830000
H        0.15460000       1.79850000      -0.71230000
H        0.41780000      -0.42640000       0.96380000
H       -1.69490000      -1.32580000       0.39950000
H       -2.14600000       0.36870000       0.04400000
H       -0.03410000      -1.81260000      -4.15170000
