18
Properties=species:S:1:pos:R:3 gdb_61023=T pbc="F F F"
O        0.94710000      -0.01410000      -1.06980000
C        0.01360000      -0.01310000      -0.02020000
C       -1.21320000      -0.80540000      -0.40610000
O       -1.31150000      -1.35140000      -1.48040000
C        0.64310000      -0.57570000       1.26280000
C        1.85590000       0.22730000       1.86270000
C        1.05740000       0.38200000       3.16030000
N       -0.18610000       1.10390000       2.79940000
C       -0.09890000      -0.36500000       2.59380000
H        0.54130000      -0.53960000      -1.77730000
H       -0.32100000       1.01320000       0.20440000
H       -2.02160000      -0.86490000       0.35080000
H        0.91300000      -1.62430000       1.11000000
H        2.74620000      -0.39460000       1.96730000
H        2.11500000       1.15890000       1.35550000
H        1.43280000       0.40650000       4.17570000
H       -0.71060000       1.25140000       3.66120000
H       -0.80230000      -1.03320000       3.07590000
