17
Properties=species:S:1:pos:R:3 gdb_34466=T pbc="F F F"
N        0.00310000      -1.04970000      -0.01320000
C        0.00300000       0.10750000      -0.01880000
C       -0.01930000       1.54050000      -0.01550000
N       -1.11030000       2.19000000       0.71590000
C       -1.42860000       3.41280000      -0.05760000
C       -0.11500000       3.70320000      -0.78500000
C        1.07860000       3.74960000       0.23090000
C        1.32740000       2.26990000      -0.05820000
C        0.38980000       2.30830000      -1.25250000
H       -1.90790000       1.56840000       0.78000000
H       -2.24340000       3.25880000      -0.78150000
H       -1.71660000       4.22460000       0.61910000
H       -0.16970000       4.50660000      -1.51710000
H        1.90090000       4.36270000      -0.14460000
H        0.84520000       4.03530000       1.26030000
H        2.25480000       1.72290000       0.06230000
H        0.47430000       1.90330000      -2.25170000
