18
Properties=species:S:1:pos:R:3 gdb_90344=T pbc="F F F"
C       -0.03770000       1.54020000      -0.05390000
C        0.04130000       0.01910000       0.02390000
O        0.81670000      -0.48000000      -1.10360000
C        1.83300000      -1.20760000      -0.60370000
N        2.76050000      -1.83350000      -1.20670000
C        3.58410000      -2.44670000      -0.14400000
C        2.97180000      -2.06920000       1.26490000
C        1.79750000      -1.23700000       0.85470000
C        0.74640000      -0.52510000       1.25670000
H        0.96010000       1.98000000       0.02740000
H       -0.48300000       1.84870000      -1.00330000
H       -0.65850000       1.92650000       0.76080000
H       -0.96810000      -0.40470000      -0.07510000
H        3.61180000      -3.53270000      -0.28820000
H        4.61690000      -2.09250000      -0.23660000
H        2.67650000      -2.95610000       1.83380000
H        3.68240000      -1.51370000       1.88450000
H        0.39180000      -0.31910000       2.25820000
