18
Properties=species:S:1:pos:R:3 gdb_51166=T pbc="F F F"
O       -0.01040000       0.58990000       1.33460000
C        0.01750000       1.43230000       0.46640000
N        1.09980000       1.76030000      -0.30020000
C        2.36670000       1.09960000      -0.25110000
C        3.08070000       0.95250000       1.06920000
C        3.67350000       1.85030000       0.01470000
C        4.72890000       1.28020000      -0.93050000
C        4.00180000       0.15690000      -1.64410000
C        2.71860000       0.07850000      -1.28750000
H       -0.85900000       2.06070000       0.20390000
H        0.94850000       2.42950000      -1.04060000
H        2.62500000       1.43610000       1.92480000
H        3.54130000      -0.00660000       1.27990000
H        3.64830000       2.91750000       0.20120000
H        5.09660000       2.03510000      -1.63840000
H        5.61030000       0.91320000      -0.38880000
H        4.50330000      -0.51400000      -2.33230000
H        1.99370000      -0.64040000      -1.65150000
