22
Properties=species:S:1:pos:R:3 gdb_15901=T pbc="F F F"
C       -1.00090000       0.66830000      -1.51190000
C        0.08980000      -0.25090000      -0.98030000
C        1.56770000       0.02460000      -1.36960000
C        1.99610000      -0.43530000       0.04970000
C        3.15730000       0.26690000       0.74160000
C        0.51980000      -0.21700000       0.52620000
C        0.26490000       1.09080000       1.25770000
O       -1.12700000       1.16010000       1.54580000
H       -0.78670000       1.71960000      -1.29460000
H       -1.08560000       0.56800000      -2.60030000
H       -1.97250000       0.43400000      -1.06830000
H       -0.15980000      -1.28680000      -1.23720000
H        1.98240000      -0.51020000      -2.22870000
H        1.74910000       1.09630000      -1.51370000
H        2.19340000      -1.51310000       0.03290000
H        3.01930000       1.35300000       0.77260000
H        3.28760000      -0.08330000       1.77180000
H        4.09460000       0.07320000       0.20780000
H        0.10280000      -1.01900000       1.14350000
H        0.85780000       1.11380000       2.18600000
H        0.58470000       1.95200000       0.64970000
H       -1.30320000       2.00210000       1.97560000
