14
Properties=species:S:1:pos:R:3 gdb_132946=T pbc="F F F"
C       -0.02240000       1.50200000       0.00930000
C       -0.00620000       0.00230000      -0.01100000
C       -0.03540000      -0.70590000      -1.15690000
O       -0.02240000      -2.05690000      -1.22630000
C        0.02280000      -2.75490000      -0.07140000
C        0.05510000      -2.15470000       1.13210000
F        0.09910000      -2.89430000       2.23340000
C        0.04360000      -0.69690000       1.28300000
O        0.07220000      -0.12840000       2.36390000
H        0.86620000       1.88430000       0.52130000
H       -0.05980000       1.92110000      -0.99920000
H       -0.88450000       1.86460000       0.57810000
H       -0.07240000      -0.27050000      -2.14790000
H        0.03000000      -3.82590000      -0.22120000
