17
Properties=species:S:1:pos:R:3 gdb_16974=T pbc="F F F"
C       -0.00150000       1.51750000      -0.32420000
C        1.53260000       1.41340000       0.06940000
C        1.01970000       0.24520000       0.95600000
C        0.90230000      -1.31700000       1.21020000
C       -0.63650000      -0.85850000       1.07980000
C       -0.76960000       0.01290000       2.33430000
C        0.33620000       0.75260000       2.27730000
N       -0.07220000       0.06110000       0.01290000
H       -0.53440000       2.19120000       0.36010000
H       -0.26050000       1.74430000      -1.36060000
H        2.14370000       1.09420000      -0.77600000
H        1.98310000       2.27290000       0.57090000
H        1.24090000      -1.92480000       0.36930000
H        1.20890000      -1.72230000       2.17660000
H       -1.42850000      -1.55510000       0.80480000
H       -1.56050000      -0.02620000       3.06960000
H        0.73010000       1.48890000       2.96470000
