17
Properties=species:S:1:pos:R:3 gdb_92799=T pbc="F F F"
O        0.51220000       1.40460000       0.77720000
C       -0.15890000       0.30220000       0.18550000
C        0.55360000      -1.04440000       0.46840000
N       -0.14400000      -1.66660000       1.60090000
C       -1.26370000      -1.06960000       1.74780000
C       -1.55870000       0.06900000       0.79770000
N       -2.14080000      -1.49880000       2.73990000
C       -3.39560000      -1.01760000       3.02820000
O       -3.95880000      -0.11210000       2.46060000
H        0.62950000       1.21500000       1.71500000
H       -0.20500000       0.53890000      -0.87940000
H        0.51040000      -1.72160000      -0.39500000
H        1.61180000      -0.88570000       0.70050000
H       -1.96080000       0.95910000       1.28200000
H       -2.29870000      -0.24760000       0.05410000
H       -1.79810000      -2.27930000       3.28420000
H       -3.84550000      -1.57730000       3.87040000
