20
Properties=species:S:1:pos:R:3 gdb_16246=T pbc="F F F"
C       -0.31880000       1.40430000      -0.07890000
C        0.00800000      -0.07960000      -0.01200000
O        0.87660000      -0.41710000      -1.10480000
C        1.93460000      -1.26610000      -0.66230000
C        1.52700000      -1.76960000       0.72670000
C        0.72050000      -0.58810000       1.24050000
C        1.28800000       0.32960000       2.29520000
C        0.10080000      -0.55550000       2.60420000
H        0.59060000       2.00670000      -0.00340000
H       -0.80150000       1.63350000      -1.03280000
H       -1.00530000       1.69360000       0.72440000
H       -0.92780000      -0.65130000      -0.13400000
H        2.06890000      -2.07200000      -1.39230000
H        2.87320000      -0.69410000      -0.61170000
H        0.89190000      -2.65960000       0.64050000
H        2.38190000      -2.02280000       1.35910000
H        2.24750000       0.06810000       2.73010000
H        1.11560000       1.39660000       2.21410000
H       -0.86820000      -0.07780000       2.71490000
H        0.24780000      -1.41040000       3.25630000
