17
Properties=species:S:1:pos:R:3 gdb_98800=T pbc="F F F"
C       -0.17780000       1.53520000       0.10610000
C        0.06320000       0.02820000       0.06340000
C        0.76870000      -0.50420000       1.29780000
O        1.18800000       0.18430000       2.19290000
C        0.86560000      -2.03300000       1.35790000
O        1.58770000      -2.55040000       2.47970000
C        0.43050000      -3.16510000       3.08350000
C       -0.41890000      -2.70840000       1.89470000
O       -1.54960000      -2.80240000       1.53380000
H        0.76520000       2.07650000       0.21360000
H       -0.67090000       1.87160000      -0.80960000
H       -0.80810000       1.80570000       0.95710000
H       -0.87620000      -0.53250000      -0.04760000
H        0.66760000      -0.25240000      -0.81090000
H        1.21530000      -2.43540000       0.39740000
H        0.53150000      -4.25060000       3.20230000
H        0.15860000      -2.71000000       4.04420000
