21
Properties=species:S:1:pos:R:3 gdb_120145=T pbc="F F F"
C        0.10190000       1.49350000       0.25430000
C       -0.07850000       0.00790000       0.51150000
O        1.17520000      -0.53740000       0.91680000
C        1.11880000      -1.92450000       1.12310000
C        2.20720000      -2.62950000       1.84740000
C        2.76870000      -1.75910000       2.97370000
C        1.33330000      -1.66730000       3.59580000
O        0.76940000      -0.39780000       3.81410000
C        0.77510000      -2.53120000       2.45160000
H        0.86020000       1.66130000      -0.51560000
H       -0.84060000       1.93560000      -0.08200000
H        0.41720000       2.01520000       1.16330000
H       -0.83190000      -0.17020000       1.29350000
H       -0.42340000      -0.50290000      -0.40100000
H        0.71780000      -2.46600000       0.26480000
H        2.70390000      -3.49170000       1.41890000
H        3.47310000      -2.28700000       3.61990000
H        3.21140000      -0.80850000       2.66470000
H        1.28200000      -2.19280000       4.55210000
H        0.91200000       0.09210000       2.99530000
H        0.01080000      -3.29330000       2.55600000
