14
Properties=species:S:1:pos:R:3 gdb_37107=T pbc="F F F"
C        0.01950000       1.45120000      -0.03570000
C        1.35580000       0.76810000       0.00500000
O        1.95860000       0.47970000       1.24910000
C        1.08160000      -0.36270000       1.89000000
N        0.01700000      -0.72880000       1.29360000
C        0.02390000      -0.04810000       0.02460000
C        0.48860000      -0.76970000      -1.27590000
O        0.75760000       0.23670000      -2.25650000
C        1.75770000      -0.03020000      -1.27240000
H       -0.27880000       1.95750000       0.87520000
H       -0.27140000       1.93360000      -0.95940000
H        1.37670000      -0.63670000       2.89680000
H        0.20800000      -1.75920000      -1.61650000
H        2.76030000      -0.26950000      -1.60640000
