19
Properties=species:S:1:pos:R:3 gdb_83649=T pbc="F F F"
C       -0.69840000       1.34660000      -0.00340000
C       -0.05150000      -0.02860000      -0.02650000
C        1.12420000      -0.28480000      -1.00990000
O        2.01640000       0.84250000      -1.14950000
C        2.96010000       0.27810000      -0.20810000
C        2.00050000      -0.87110000       0.13890000
C        0.88910000      -0.46350000       1.11570000
C        1.00360000       0.01050000       2.49690000
O        0.45910000      -1.28130000       2.18820000
H        0.06520000       2.12780000       0.03360000
H       -1.30360000       1.51040000      -0.90120000
H       -1.35670000       1.45680000       0.86470000
H       -0.80390000      -0.81620000      -0.16060000
H        0.91350000      -0.76930000      -1.96620000
H        3.87990000      -0.03960000      -0.71520000
H        3.21490000       0.97510000       0.59930000
H        2.37330000      -1.89200000       0.19880000
H        1.97200000       0.00150000       2.99670000
H        0.28980000       0.73630000       2.88380000
