15
Properties=species:S:1:pos:R:3 gdb_44665=T pbc="F F F"
O        0.02150000       0.01740000      -0.31200000
C       -0.01010000       1.18590000      -0.02940000
C       -1.26850000       2.03340000       0.21230000
C       -0.73490000       3.31100000       0.88930000
N       -0.54280000       2.96080000       2.31830000
C        0.66900000       2.59960000       2.42820000
N        1.55320000       2.81610000       1.31720000
C        0.70090000       3.47840000       0.32610000
C        1.19350000       2.10680000       0.03010000
H       -1.70450000       2.26580000      -0.76780000
H       -2.01210000       1.49670000       0.80390000
H       -1.38460000       4.17790000       0.77630000
H        1.09870000       2.18950000       3.33640000
H        1.06710000       4.38050000      -0.15080000
H        2.05180000       1.86630000      -0.58700000
