19
Properties=species:S:1:pos:R:3 gdb_74377=T pbc="F F F"
C        0.11960000       1.49360000      -0.18660000
C        0.04900000      -0.00360000      -0.08320000
C        0.01550000      -0.80300000      -1.14990000
C       -0.10870000      -2.30360000      -1.04500000
O       -0.37610000      -2.76220000       0.26260000
C        0.37850000      -2.08800000       1.25790000
C        0.02260000      -0.60270000       1.30480000
C       -1.26750000      -2.78340000      -1.92110000
O       -1.27940000      -2.68710000      -3.11880000
H        1.02710000       1.88050000       0.29430000
H        0.11210000       1.82880000      -1.22690000
H       -0.72900000       1.96170000       0.32900000
H        0.05550000      -0.41210000      -2.16240000
H        0.80700000      -2.77770000      -1.44610000
H        0.14780000      -2.58800000       2.20230000
H        1.45600000      -2.20880000       1.06320000
H        0.73090000      -0.07560000       1.95770000
H       -0.97010000      -0.46430000       1.75490000
H       -2.10840000      -3.21990000      -1.33950000
