14
Properties=species:S:1:pos:R:3 gdb_133129=T pbc="F F F"
O        0.00060000       1.44160000       0.00780000
C        0.02300000       0.02850000       0.00190000
C       -1.39410000      -0.47670000       0.01210000
C       -2.51720000       0.34150000       0.02360000
N       -3.77030000      -0.13650000       0.03240000
C       -3.88860000      -1.45840000       0.02960000
N       -2.89000000      -2.35190000       0.01900000
C       -1.68550000      -1.83980000       0.01060000
F       -0.66730000      -2.69730000      -0.00000000
H        0.90790000       1.75830000       0.00200000
H        0.54050000      -0.36750000      -0.88670000
H        0.55580000      -0.37460000       0.87820000
H       -2.39530000       1.41900000       0.02570000
H       -4.89580000      -1.86590000       0.03670000
