12
Properties=species:S:1:pos:R:3 gdb_128017=T pbc="F F F"
C        0.10960000       1.44770000       0.07700000
N        0.20000000      -0.00040000       0.06940000
C        0.50820000      -0.63670000      -0.96360000
O        0.82270000       0.00070000      -2.16440000
N        0.88320000      -0.70760000      -3.36560000
N        0.88080000      -1.93100000      -3.39260000
O        0.82850000      -2.69700000      -2.20410000
C        0.60140000      -2.12530000      -0.96450000
O        0.50390000      -2.83700000      -0.01890000
H        1.00590000       1.84440000       0.56810000
H        0.02280000       1.90110000      -0.91490000
H       -0.74590000       1.73240000       0.69490000
