18
Properties=species:S:1:pos:R:3 gdb_10659=T pbc="F F F"
C        0.15460000       1.28820000       0.23190000
O       -0.22880000      -0.02780000      -0.15160000
C        0.49200000      -0.55940000      -1.20470000
C        1.88870000      -1.13040000      -0.92840000
C        0.74100000      -2.06390000      -1.15510000
C        0.15020000      -2.87740000      -0.02610000
C        0.26980000       0.02600000      -2.55160000
O       -0.45150000       0.96180000      -2.79310000
H        1.21920000       1.32940000       0.50200000
H       -0.04700000       2.00870000      -0.56580000
H       -0.44450000       1.53900000       1.10980000
H        2.65680000      -1.02800000      -1.68760000
H        2.23250000      -0.99840000       0.09190000
H        0.72140000      -2.55300000      -2.12620000
H        0.12060000      -2.29720000       0.89790000
H       -0.87350000      -3.18600000      -0.25970000
H        0.74590000      -3.78010000       0.14470000
H        0.84780000      -0.48700000      -3.35710000
