22
Properties=species:S:1:pos:R:3 gdb_7579=T pbc="F F F"
C       -0.23110000       1.48150000       0.02410000
C        0.07670000      -0.02260000      -0.01740000
C        0.79690000      -0.40200000      -1.31980000
C        0.83070000      -0.50600000       1.23690000
C        2.21540000       0.11630000       1.42380000
C       -0.00660000      -0.50680000       2.54520000
O        0.18800000      -1.92210000       2.73000000
C        0.83280000      -2.04500000       1.44780000
H        0.68110000       2.08270000      -0.05180000
H       -0.87920000       1.76540000      -0.81130000
H       -0.74250000       1.76440000       0.95040000
H       -0.88700000      -0.55190000      -0.01270000
H        1.73880000       0.14480000      -1.43450000
H        1.02410000      -1.47270000      -1.35930000
H        0.17380000      -0.16410000      -2.18800000
H        2.16030000       1.20500000       1.52370000
H        2.68650000      -0.27430000       2.33160000
H        2.87910000      -0.11220000       0.58380000
H        0.39520000       0.07690000       3.38280000
H       -1.06850000      -0.25510000       2.41340000
H        0.21620000      -2.60920000       0.73370000
H        1.81570000      -2.52610000       1.52560000
