25
Properties=species:S:1:pos:R:3 gdb_118997=T pbc="F F F"
C       -0.09830000       1.51550000      -0.28740000
C       -0.00790000       0.00330000      -0.06220000
C       -1.38540000      -0.65010000       0.09540000
C       -1.37580000      -2.18820000       0.20790000
C       -0.69030000      -2.67290000       1.48890000
C       -2.81060000      -2.76310000       0.06550000
C       -2.89190000      -3.17670000      -1.41120000
C       -1.44860000      -3.60610000      -1.67560000
O       -0.64240000      -2.70900000      -0.92620000
H        0.89500000       1.96150000      -0.40040000
H       -0.67180000       1.74850000      -1.19180000
H       -0.59320000       2.01590000       0.55290000
H        0.50800000      -0.47180000      -0.90270000
H        0.60380000      -0.19080000       0.82710000
H       -1.89370000      -0.23980000       0.97900000
H       -2.00470000      -0.37950000      -0.77040000
H       -1.22340000      -2.31420000       2.37630000
H       -0.67590000      -3.76650000       1.51810000
H        0.34320000      -2.32240000       1.54300000
H       -2.93100000      -3.64100000       0.70920000
H       -3.57350000      -2.03560000       0.35340000
H       -3.61860000      -3.97130000      -1.59870000
H       -3.15390000      -2.32190000      -2.04320000
H       -1.28610000      -4.64590000      -1.34570000
H       -1.15090000      -3.53750000      -2.72680000
