15
Properties=species:S:1:pos:R:3 gdb_46107=T pbc="F F F"
N       -0.28820000       1.16770000      -0.12060000
C       -0.09530000      -0.06300000       0.01770000
O        0.91660000      -0.67320000       0.70650000
C        0.87160000      -2.07720000       0.45460000
C       -0.56500000      -2.29030000      -0.04820000
C       -1.52880000      -2.73710000       1.06700000
C       -2.90740000      -2.86850000       0.60380000
N       -3.99350000      -2.99470000       0.23250000
O       -0.92110000      -0.99610000      -0.52710000
H        0.45790000       1.69650000       0.32430000
H        1.61410000      -2.34200000      -0.30590000
H        1.09680000      -2.60940000       1.38160000
H       -0.61860000      -2.98470000      -0.88920000
H       -1.19720000      -3.70610000       1.45840000
H       -1.48900000      -2.01920000       1.89400000
