20
Properties=species:S:1:pos:R:3 gdb_79471=T pbc="F F F"
C        0.06090000       1.46600000      -0.18580000
N        0.04020000       0.01500000      -0.03300000
C       -1.22120000      -0.46180000       0.57260000
C       -0.99680000      -1.96890000       1.00650000
C        0.54000000      -2.01690000       0.95820000
C        0.68010000      -0.50600000       1.24250000
C        1.99720000       0.05750000       1.70210000
C       -0.72900000      -0.32250000       2.02200000
O       -1.22390000      -1.60780000       2.40410000
H        1.07400000       1.79290000      -0.43820000
H       -0.59370000       1.74300000      -1.01870000
H       -0.26920000       2.03460000       0.70210000
H       -2.18060000      -0.13710000       0.17220000
H       -1.59940000      -2.80730000       0.66260000
H        0.92580000      -2.67020000       1.74360000
H        0.96480000      -2.27080000      -0.01390000
H        2.77980000      -0.11350000       0.95430000
H        1.94000000       1.13390000       1.89190000
H        2.30830000      -0.43010000       2.63150000
H       -0.89260000       0.47770000       2.74220000
