22
Properties=species:S:1:pos:R:3 gdb_6832=T pbc="F F F"
C       -0.07390000       1.54490000      -0.08110000
C       -0.01090000       0.01460000      -0.01480000
C       -1.38820000      -0.58720000      -0.27910000
C        1.16930000      -0.54390000      -0.87580000
C        2.04030000      -0.63210000       0.40460000
C        0.74440000      -0.53640000       1.24850000
C        0.75960000       0.24430000       2.54700000
O        1.54950000      -0.49030000       3.47540000
H        0.90630000       2.00640000       0.07570000
H       -0.43240000       1.86440000      -1.06640000
H       -0.76140000       1.95440000       0.66780000
H       -1.76710000      -0.28890000      -1.26410000
H       -1.35530000      -1.68150000      -0.25100000
H       -2.11910000      -0.25530000       0.46830000
H        0.93890000      -1.53250000      -1.28430000
H        1.52750000       0.09170000      -1.69090000
H        2.65860000      -1.52170000       0.53700000
H        2.67720000       0.24860000       0.53450000
H        0.37630000      -1.54450000       1.47200000
H        1.17900000       1.24930000       2.38530000
H       -0.27040000       0.37540000       2.92030000
H        1.60650000       0.01870000       4.28920000
