19
Properties=species:S:1:pos:R:3 gdb_96938=T pbc="F F F"
C        0.47690000       1.34470000      -0.04290000
N        0.42870000      -0.10880000      -0.00120000
C        0.51020000      -0.72980000      -1.09260000
N        0.57640000      -0.36730000      -2.45630000
C        0.72120000      -1.74500000      -2.93060000
C        2.13240000      -2.38220000      -2.84760000
C        3.36760000      -1.55280000      -3.12150000
O        1.94750000      -2.68950000      -1.43890000
C        0.58480000      -2.21060000      -1.45180000
H        1.51350000       1.69990000       0.03710000
H        0.04130000       1.77420000      -0.95830000
H       -0.06850000       1.74990000       0.81430000
H        1.05580000       0.43700000      -2.83680000
H        0.06990000      -2.02510000      -3.75820000
H        2.16290000      -3.31940000      -3.42190000
H        3.32200000      -0.59240000      -2.60030000
H        4.25790000      -2.08360000      -2.77150000
H        3.48000000      -1.37150000      -4.19620000
H       -0.13420000      -2.91980000      -1.04230000
