21
Properties=species:S:1:pos:R:3 gdb_112878=T pbc="F F F"
C        0.16720000       1.59640000       0.13200000
C        0.02440000       0.07330000       0.05090000
C        0.53850000      -0.53640000      -1.26200000
C        0.69480000      -2.06660000      -1.26820000
C        0.66810000      -2.46170000      -2.75060000
O        0.37820000      -3.84320000      -2.86270000
C       -0.39640000      -1.52800000      -3.35050000
C       -0.34350000      -0.25960000      -2.49290000
O       -0.91170000       0.77360000      -2.74260000
H        1.21930000       1.89490000       0.05680000
H       -0.38000000       2.08020000      -0.67910000
H       -0.21630000       1.97220000       1.08570000
H        0.57190000      -0.39300000       0.87950000
H       -1.02760000      -0.20990000       0.18360000
H        1.51420000      -0.08170000      -1.49990000
H        1.59600000      -2.41350000      -0.75770000
H       -0.16660000      -2.53790000      -0.77790000
H        1.64850000      -2.23740000      -3.20150000
H        0.41720000      -4.08600000      -3.79310000
H       -0.28790000      -1.29910000      -4.41380000
H       -1.38450000      -1.98630000      -3.20790000
