18
Properties=species:S:1:pos:R:3 gdb_103395=T pbc="F F F"
C       -0.14640000       1.51390000       0.13180000
C        0.04710000      -0.00700000       0.10480000
C        0.70230000      -0.49680000      -1.17850000
O        2.01020000       0.02070000      -1.36560000
C        0.72270000      -2.01160000      -1.46320000
N       -0.67480000      -2.43680000      -1.50600000
C       -0.05200000      -1.86750000      -2.75160000
C       -0.05050000      -0.37610000      -2.56030000
O       -0.23750000       0.56790000      -3.27530000
H        0.81500000       2.03540000       0.08060000
H       -0.76090000       1.85280000      -0.70790000
H       -0.63780000       1.82470000       1.05810000
H        0.68170000      -0.31660000       0.94520000
H       -0.91420000      -0.51720000       0.21570000
H        1.92140000       0.90220000      -1.74650000
H        1.54660000      -2.68340000      -1.26170000
H       -0.69370000      -3.44710000      -1.64450000
H       -0.01780000      -2.44370000      -3.66740000
