16
Properties=species:S:1:pos:R:3 gdb_60751=T pbc="F F F"
C       -0.01700000       1.48920000      -0.01070000
N       -0.00540000       0.02680000       0.01430000
C       -0.00110000      -0.62880000       1.25280000
N       -0.00710000       0.01930000       2.34360000
C        0.00170000      -0.75770000      -1.13220000
O        0.01110000      -1.96700000      -1.11030000
C       -0.00360000       0.02950000      -2.45270000
C        0.00440000      -0.85040000      -3.61570000
N        0.01050000      -1.50440000      -4.56630000
H        0.87230000       1.88700000      -0.50830000
H       -0.91150000       1.87270000      -0.50990000
H       -0.02060000       1.82340000       1.02560000
H        0.00760000      -1.71080000       1.12880000
H       -0.00260000      -0.62220000       3.13380000
H       -0.88480000       0.67950000      -2.50020000
H        0.86700000       0.69380000      -2.49880000
