17
Properties=species:S:1:pos:R:3 gdb_20189=T pbc="F F F"
C       -0.05010000       1.45880000      -0.04420000
C        1.49740000       1.52070000       0.07130000
C        2.00160000       1.95880000       1.44350000
O        1.12120000       1.51120000       2.46270000
C        0.87810000       0.11470000       2.46570000
C        0.74210000      -0.53560000       1.10110000
C        1.45890000      -0.00850000      -0.07160000
N       -0.05810000      -0.04910000      -0.04990000
H       -0.63430000       1.91820000       0.75590000
H       -0.41740000       1.80240000      -1.01350000
H        2.00330000       2.05370000      -0.73510000
H        3.02630000       1.58430000       1.60990000
H        2.01850000       3.04910000       1.53680000
H        1.69640000      -0.41440000       2.98640000
H       -0.03240000      -0.02650000       3.05820000
H        0.66650000      -1.61880000       1.17160000
H        2.04840000      -0.61020000      -0.75600000
