23
Properties=species:S:1:pos:R:3 gdb_60256=T pbc="F F F"
C       -0.18680000       1.57790000       0.21970000
C       -0.06690000       0.06620000       0.02080000
O        0.88850000      -0.49090000       0.92670000
C       -1.42740000      -0.63790000       0.09790000
C       -1.37150000      -2.13140000      -0.23360000
C       -0.99560000      -3.07210000       0.95220000
C       -2.50590000      -3.35750000       1.17630000
C       -2.76020000      -2.83050000      -0.26060000
O       -3.85050000      -1.97010000      -0.50320000
H        0.80090000       2.04530000       0.17710000
H       -0.82180000       2.03180000      -0.54770000
H       -0.63230000       1.80730000       1.19640000
H        0.36710000      -0.12580000      -0.96920000
H        0.60250000      -0.26760000       1.81960000
H       -1.85720000      -0.47970000       1.09760000
H       -2.11450000      -0.14750000      -0.60120000
H       -0.78130000      -2.26900000      -1.14560000
H       -0.45110000      -3.95850000       0.61670000
H       -0.43920000      -2.61990000       1.77270000
H       -2.81260000      -4.38000000       1.41180000
H       -2.94540000      -2.67700000       1.91160000
H       -2.75000000      -3.66100000      -0.98210000
H       -4.65910000      -2.49090000      -0.47690000
