21
Properties=species:S:1:pos:R:3 gdb_122110=T pbc="F F F"
C       -0.12450000       1.52460000       0.00780000
C        0.06100000       0.00600000      -0.01970000
C        0.80890000      -0.47820000      -1.26990000
O        2.10690000       0.08470000      -1.26240000
C        2.78710000       0.01820000      -2.51000000
C        4.21030000       0.48780000      -2.25540000
O        4.86510000      -0.33640000      -1.31250000
C        0.88670000      -2.00380000      -1.25320000
O       -0.01760000      -2.73030000      -1.56980000
H        0.84120000       2.03350000      -0.03730000
H       -0.72630000       1.86320000      -0.84270000
H       -0.63480000       1.83540000       0.92400000
H        0.61870000      -0.32150000       0.86660000
H       -0.90670000      -0.50590000       0.00320000
H        0.25350000      -0.16960000      -2.16920000
H        2.79910000      -1.01420000      -2.89140000
H        2.28690000       0.65530000      -3.25630000
H        4.78610000       0.43810000      -3.18510000
H        4.18690000       1.53920000      -1.92730000
H        4.28230000      -0.37300000      -0.54530000
H        1.86160000      -2.39330000      -0.87630000
