19
Properties=species:S:1:pos:R:3 gdb_47944=T pbc="F F F"
O        0.13350000      -0.25580000       0.04590000
C        0.01830000       0.96020000       0.00920000
N       -1.22670000       1.55230000       0.07070000
C       -1.65070000       2.87600000       0.52030000
C       -0.76820000       3.60480000       1.55940000
O        0.04250000       4.61530000       0.99080000
C        1.29030000       4.21280000       0.47100000
C        1.22640000       3.12650000      -0.61260000
N        1.12820000       1.77280000      -0.08890000
H       -1.92200000       0.82810000       0.15590000
H       -1.78520000       3.57000000      -0.31970000
H       -2.64250000       2.73200000       0.96000000
H       -1.43220000       4.13580000       2.24880000
H       -0.17680000       2.88730000       2.14440000
H        1.72650000       5.12360000       0.04690000
H        1.95350000       3.85740000       1.27640000
H        0.40280000       3.33590000      -1.30320000
H        2.14880000       3.18540000      -1.20060000
H        1.96140000       1.20850000      -0.13850000
