18
Properties=species:S:1:pos:R:3 gdb_14457=T pbc="F F F"
O       -0.05640000       1.37200000       0.04620000
C        0.04130000      -0.00940000       0.03410000
C        0.69210000      -0.95710000       1.07220000
C        0.04350000      -1.86900000       0.00180000
C       -1.20680000      -0.93060000      -0.03330000
C       -1.77600000      -0.89670000      -1.45170000
C       -0.45190000      -0.89020000      -2.27120000
C        0.56270000      -0.92700000      -1.12890000
H        0.83240000       1.74180000       0.01040000
H        1.78560000      -0.96390000       1.12440000
H        0.24620000      -0.97370000       2.07070000
H        0.03590000      -2.95710000      -0.02060000
H       -1.89350000      -0.93990000       0.81530000
H       -2.40150000      -1.76880000      -1.66640000
H       -2.38210000      -0.00290000      -1.62610000
H       -0.36130000      -1.75390000      -2.93730000
H       -0.34340000       0.01090000      -2.88290000
H        1.63000000      -0.92980000      -1.36390000
