15
Properties=species:S:1:pos:R:3 gdb_4508=T pbc="F F F"
C        0.01830000       1.45720000      -0.00640000
C        0.03170000      -0.03470000      -0.01650000
N        0.01210000      -0.79570000      -1.10220000
C        0.03490000      -2.08210000      -0.65030000
O        0.02370000      -3.13820000      -1.50060000
C        0.06890000      -2.14230000       0.72000000
N        0.10180000      -3.16870000       1.68350000
N        0.06600000      -0.79970000       1.10190000
H        0.91060000       1.87250000       0.47660000
H       -0.00990000       1.81180000      -1.03760000
H       -0.85700000       1.85640000       0.51940000
H       -0.00140000      -2.76200000      -2.38850000
H        0.92110000      -3.75870000       1.57860000
H       -0.71080000      -3.77340000       1.61880000
H        0.08660000      -0.49010000       2.05950000
