16
Properties=species:S:1:pos:R:3 gdb_17998=T pbc="F F F"
O       -0.84900000       1.41460000      -0.36560000
C        0.08610000       1.25820000       0.37750000
C        1.44000000       1.89240000       0.19290000
C        1.58840000       2.95940000      -0.92740000
C        1.92070000       4.03900000       0.13740000
C        0.69170000       4.68700000       0.80550000
O        0.61370000       3.63070000       1.79980000
C        1.77950000       2.98280000       1.26630000
H       -0.00230000       0.61920000       1.28470000
H        2.19640000       1.09890000       0.16710000
H        2.41290000       2.75510000      -1.61290000
H        0.67810000       3.12710000      -1.50700000
H        2.80160000       4.66060000      -0.01340000
H        0.87780000       5.65700000       1.28160000
H       -0.21680000       4.74970000       0.19530000
H        2.51920000       2.74480000       2.03460000
