25
Properties=species:S:1:pos:R:3 gdb_59166=T pbc="F F F"
C       -0.07720000       1.32240000      -0.89090000
C        0.14930000      -0.02460000      -0.18770000
C        0.76930000       0.17240000       1.20320000
C       -1.16410000      -0.78710000      -0.09150000
C       -1.81780000      -1.58090000      -1.18550000
C       -0.80140000      -2.42730000      -1.96820000
C       -0.45710000      -3.20460000      -0.65140000
C        0.98820000      -3.43060000      -0.21880000
C       -1.39190000      -2.26310000       0.12940000
H        0.86000000       1.87980000      -0.99250000
H       -0.49890000       1.18100000      -1.89110000
H       -0.77520000       1.94800000      -0.32120000
H        0.85680000      -0.59760000      -0.79570000
H        0.09910000       0.75110000       1.85040000
H        0.95650000      -0.78710000       1.69490000
H        1.71890000       0.71490000       1.14160000
H       -1.90760000      -0.21410000       0.46660000
H       -2.82030000      -1.35830000      -1.53220000
H       -1.25820000      -3.06550000      -2.72760000
H        0.01860000      -1.87480000      -2.43940000
H       -0.95000000      -4.18160000      -0.70760000
H        1.56610000      -2.50410000      -0.17930000
H        1.02700000      -3.88710000       0.77700000
H        1.49800000      -4.10980000      -0.91190000
H       -2.02590000      -2.59730000       0.94430000
