22
Properties=species:S:1:pos:R:3 gdb_118014=T pbc="F F F"
C        0.02740000       1.39050000       0.08940000
O        0.02950000      -0.01720000       0.09180000
C       -1.26230000      -0.57030000      -0.01550000
C       -1.13730000      -2.09750000      -0.00180000
C       -0.42620000      -2.57060000       1.27240000
C       -2.53350000      -2.76460000      -0.16110000
C       -3.29910000      -2.36170000      -1.44030000
C       -2.40040000      -4.22640000      -0.12740000
N       -2.30160000      -5.37820000      -0.12240000
H        1.06620000       1.71860000       0.17080000
H       -0.40250000       1.79700000      -0.83980000
H       -0.54300000       1.79970000       0.93830000
H       -1.89700000      -0.23620000       0.82660000
H       -1.74050000      -0.21850000      -0.94280000
H       -0.53120000      -2.38320000      -0.87100000
H       -0.27050000      -3.65210000       1.26180000
H        0.54220000      -2.07670000       1.36370000
H       -1.01660000      -2.32190000       2.16290000
H       -3.14220000      -2.48740000       0.71110000
H       -4.21370000      -2.95110000      -1.54000000
H       -3.57980000      -1.30710000      -1.41070000
H       -2.68550000      -2.53440000      -2.32930000
