11
Properties=species:S:1:pos:R:3 gdb_21899=T pbc="F F F"
O        0.13410000       1.33520000       0.02810000
C        0.08320000      -0.00260000       0.02860000
N        0.08000000      -0.74070000      -1.07210000
N        0.02180000      -1.98590000      -0.58470000
N       -0.01270000      -2.11330000       0.72420000
C        0.02540000      -0.84430000       1.16870000
C        0.00810000      -0.48660000       2.53330000
C       -0.00530000      -0.15210000       3.68870000
H        0.16610000       1.63100000      -0.89040000
H        0.00520000      -2.78700000      -1.19380000
H       -0.01720000       0.14020000       4.70940000
