18
Properties=species:S:1:pos:R:3 gdb_88710=T pbc="F F F"
C       -0.23650000       1.50210000      -0.01830000
C       -0.10750000       0.00950000       0.14620000
O        1.17260000      -0.58150000      -0.10890000
C        0.64280000      -0.66600000       1.21920000
C        1.40150000       0.05960000       2.28040000
N        0.85450000      -0.03560000       3.63750000
C        2.15710000      -0.67830000       3.34900000
C        2.21940000      -2.11260000       3.41260000
C        2.30490000      -3.31060000       3.46210000
H        0.60310000       2.03960000       0.42720000
H       -0.27500000       1.76140000      -1.08150000
H       -1.16330000       1.85570000       0.44620000
H       -0.93590000      -0.55890000      -0.28280000
H        0.31560000      -1.66160000       1.51770000
H        1.84960000       0.99850000       1.96570000
H        1.00380000       0.83130000       4.14680000
H        3.05000000      -0.17480000       3.71410000
H        2.37300000      -4.36940000       3.50650000
