19
Properties=species:S:1:pos:R:3 gdb_91467=T pbc="F F F"
C       -0.08320000       1.50150000       0.02160000
C        0.02770000      -0.01890000      -0.00070000
C        1.02650000      -0.58260000      -1.06590000
C        1.98590000      -1.29830000      -0.09760000
C        1.04640000      -2.07380000       0.84550000
C        0.74940000      -0.60630000       1.25530000
O        2.15920000      -0.29740000       0.95750000
C        0.28070000      -0.23300000       2.56360000
C       -0.14160000       0.06640000       3.64860000
H        0.90240000       1.94890000       0.18120000
H       -0.48000000       1.87630000      -0.92740000
H       -0.74690000       1.83850000       0.82380000
H       -0.96560000      -0.46810000      -0.10020000
H        0.56100000      -1.26090000      -1.78610000
H        1.53450000       0.21510000      -1.61310000
H        2.92290000      -1.70520000      -0.47530000
H        0.23530000      -2.67460000       0.42680000
H        1.58620000      -2.60530000       1.62860000
H       -0.50630000       0.33200000       4.61010000
