23
Properties=species:S:1:pos:R:3 gdb_83255=T pbc="F F F"
C        0.16660000       1.54730000      -0.14980000
C        0.13210000       0.03770000      -0.03430000
C        1.33140000      -0.84940000      -0.27470000
O        2.61070000      -0.26860000      -0.23280000
C        2.86970000       0.24220000       1.07630000
C        1.77340000      -0.29250000       2.02920000
C        1.31250000       0.72810000       3.07460000
C        0.69720000      -0.84080000       1.08800000
C       -0.14990000      -1.98050000       1.60860000
H        1.14500000       1.96900000       0.08220000
H       -0.07220000       1.84440000      -1.17710000
H       -0.57220000       2.01820000       0.50800000
H       -0.79060000      -0.38570000      -0.42930000
H        1.28880000      -1.68930000      -0.96140000
H        3.87520000      -0.07720000       1.37440000
H        2.86840000       1.34030000       1.05570000
H        2.17520000      -1.16310000       2.56460000
H        0.89870000       1.62430000       2.60350000
H        0.54150000       0.30400000       3.72590000
H        2.14630000       1.03870000       3.71380000
H       -0.80430000      -1.65340000       2.42580000
H       -0.79190000      -2.39190000       0.82360000
H        0.47470000      -2.79680000       1.99100000
