21
Properties=species:S:1:pos:R:3 gdb_84444=T pbc="F F F"
C       -0.18720000       1.54730000       0.00960000
C        0.03710000       0.02650000       0.00300000
C        0.76330000      -0.44080000      -1.24260000
C        1.87360000      -1.16680000      -1.11920000
C        2.37440000      -1.49890000       0.27610000
O        3.50220000      -2.33320000       0.30190000
C        1.16350000      -1.97750000       1.11410000
C        0.80760000      -0.46600000       1.24810000
C        2.33620000      -0.18530000       1.11820000
H        0.76330000       2.09000000       0.02890000
H       -0.73470000       1.86870000      -0.88270000
H       -0.76850000       1.85140000       0.88680000
H       -0.95720000      -0.44710000       0.01480000
H        0.35280000      -0.17400000      -2.21310000
H        2.42760000      -1.55320000      -1.97070000
H        4.19090000      -1.92730000      -0.23590000
H        0.44690000      -2.64650000       0.63170000
H        1.49290000      -2.39700000       2.06810000
H        0.31510000      -0.14530000       2.16850000
H        2.84540000      -0.32320000       2.07570000
H        2.66900000       0.73960000       0.64080000
