18
Properties=species:S:1:pos:R:3 gdb_55895=T pbc="F F F"
C       -0.17160000       1.36420000       0.17790000
C       -0.11490000      -0.10860000      -0.09910000
N        0.74140000      -0.62830000      -0.87090000
O       -1.11200000      -0.74780000       0.60570000
C       -1.14600000      -2.14410000       0.56090000
C       -2.45030000      -2.77040000       0.86340000
C       -1.89820000      -2.85800000      -0.56240000
C       -2.58100000      -2.07340000      -1.61980000
O       -2.70690000      -2.44710000      -2.75930000
H        0.60680000       1.87130000      -0.38990000
H       -1.15200000       1.76360000      -0.10040000
H       -0.03590000       1.55470000       1.24700000
H        0.63050000      -1.63660000      -0.96860000
H       -0.23400000      -2.62160000       0.91110000
H       -2.47850000      -3.68050000       1.44980000
H       -3.28610000      -2.09540000       1.01520000
H       -1.50050000      -3.80920000      -0.89920000
H       -2.99260000      -1.09740000      -1.28060000
