14
Properties=species:S:1:pos:R:3 gdb_127363=T pbc="F F F"
C       -0.01430000       1.47320000      -0.01030000
N        0.01390000       0.02390000      -0.02630000
C        0.06250000      -0.82780000      -1.10330000
N        0.07670000      -2.07880000      -0.77890000
N        0.03480000      -2.06040000       0.60630000
C        0.03310000      -3.22040000       1.38800000
O        0.06720000      -4.33470000       0.94870000
C       -0.00530000      -0.75610000       1.12870000
O       -0.04710000      -0.39420000       2.28170000
H        0.88610000       1.88800000      -0.47200000
H       -0.89750000       1.85380000      -0.53090000
H       -0.05460000       1.77770000       1.03690000
H        0.08620000      -0.47660000      -2.12420000
H       -0.00400000      -2.94920000       2.45540000
