17
Properties=species:S:1:pos:R:3 gdb_8530=T pbc="F F F"
C        0.00740000       1.54180000      -0.05940000
C        0.01910000       0.03590000      -0.05330000
C        0.52600000      -0.94940000      -1.10580000
N        0.03450000      -1.92850000      -0.04480000
C        0.52970000      -0.95090000       1.05510000
C       -0.81660000      -1.04280000       1.76440000
O       -1.12570000       0.04620000       2.59840000
C       -1.14440000      -0.96790000       0.26420000
H        1.02460000       1.93900000      -0.15200000
H       -0.57540000       1.92360000      -0.90560000
H       -0.42980000       1.92550000       0.86540000
H       -0.02060000      -1.02400000      -2.05290000
H        1.60590000      -1.00820000      -1.28390000
H        1.53990000      -1.03890000       1.45970000
H       -1.02690000      -2.01240000       2.23510000
H       -2.03400000      -0.05200000       2.90020000
H       -2.09520000      -1.07790000      -0.26300000
