16
Properties=species:S:1:pos:R:3 gdb_15872=T pbc="F F F"
O        0.55110000       0.79680000      -0.87220000
C        0.11190000      -0.21760000      -0.02190000
C        0.05100000       0.01570000       1.51090000
C       -1.24800000      -0.83200000       1.55070000
O       -2.28900000      -0.48630000       2.41220000
C       -1.42040000      -0.59610000      -0.00050000
C       -2.26150000       0.54780000      -0.28090000
C       -2.91800000       1.54270000      -0.46020000
H       -0.08240000       1.52330000      -0.81330000
H        0.70250000      -1.10380000      -0.26770000
H        0.89910000      -0.30090000       2.12060000
H       -0.17360000       1.06590000       1.72700000
H       -1.03080000      -1.88680000       1.73670000
H       -2.62850000       0.37300000       2.13130000
H       -1.72220000      -1.45940000      -0.59870000
H       -3.52550000       2.39260000      -0.65410000
