17
Properties=species:S:1:pos:R:3 gdb_37267=T pbc="F F F"
C        0.00880000       1.49210000      -0.05350000
C        1.27470000       0.71190000      -0.01950000
C        1.90480000       0.45080000       1.33750000
C        2.15860000      -1.04180000       1.60050000
C        0.80690000      -1.68020000       1.58100000
C       -0.16610000      -0.53330000       1.31620000
C        0.73770000       0.22810000       2.33110000
N        1.34300000      -1.09120000       2.85800000
N       -0.03830000       0.02040000      -0.03920000
H       -0.29340000       2.03430000       0.84020000
H       -0.31810000       1.94460000      -0.98430000
H        1.88480000       0.61630000      -0.91320000
H        2.70430000       1.11990000       1.65440000
H        3.07730000      -1.60690000       1.49600000
H        0.65560000      -2.74600000       1.46120000
H       -1.20140000      -0.71510000       1.60360000
H        0.38420000       0.97670000       3.03450000
