21
Properties=species:S:1:pos:R:3 gdb_103439=T pbc="F F F"
C        0.22880000      -1.29460000       1.15710000
O       -0.08010000      -0.46860000       0.05520000
C        0.62850000      -0.74320000      -1.13140000
C        2.01820000      -0.11170000      -1.12080000
C        0.64130000      -2.21250000      -1.61870000
O       -0.71420000      -2.63550000      -1.78430000
C       -0.11870000      -1.85430000      -2.82640000
C       -0.22240000      -0.37680000      -2.41840000
C       -1.61660000       0.19760000      -2.22210000
H        0.01830000      -2.35140000       0.94290000
H        1.27760000      -1.20160000       1.47580000
H       -0.41060000      -0.97070000       1.98180000
H        2.62930000      -0.50760000      -0.30270000
H        2.54870000      -0.31090000      -2.05730000
H        1.93470000       0.97140000      -0.99200000
H        1.39160000      -2.97990000      -1.45990000
H       -0.09190000      -2.29360000      -3.81720000
H        0.37550000       0.25440000      -3.08420000
H       -2.21770000      -0.46980000      -1.60260000
H       -1.57210000       1.17130000      -1.72570000
H       -2.11770000       0.32990000      -3.18740000
