16
Properties=species:S:1:pos:R:3 gdb_14869=T pbc="F F F"
O        0.20520000       1.30990000      -0.35480000
C        0.10450000      -0.10400000      -0.36110000
C       -1.29240000      -0.56970000       0.03240000
C       -2.39220000      -0.46060000      -1.04990000
O       -2.53420000      -1.89570000      -1.12710000
C       -1.59510000      -2.09490000      -0.05660000
C       -0.46600000      -3.02670000      -0.44980000
O        0.49880000      -3.23180000       0.24130000
H       -0.33120000       1.65330000      -1.07650000
H        0.38450000      -0.52320000      -1.34130000
H        0.83690000      -0.46980000       0.36380000
H       -1.56010000      -0.12140000       0.99060000
H       -3.32270000       0.02270000      -0.73080000
H       -2.08050000      -0.03260000      -2.01300000
H       -2.07450000      -2.50200000       0.84540000
H       -0.60840000      -3.50890000      -1.44330000
