17
Properties=species:S:1:pos:R:3 gdb_66883=T pbc="F F F"
C        0.00410000       1.53740000       0.03430000
C        0.01740000       0.03860000       0.00530000
C       -0.91230000      -0.83000000       0.88420000
C       -1.49300000      -2.08200000       0.29610000
C       -0.51440000      -2.81140000      -0.24440000
C        0.78940000      -2.05010000      -0.13430000
C        0.56340000      -1.01850000       1.01620000
C        0.67810000      -0.78610000      -1.04830000
O        1.20660000      -0.48880000      -2.08500000
H        0.95220000       1.93980000      -0.33610000
H       -0.79500000       1.93320000      -0.60140000
H       -0.16090000       1.91460000       1.04860000
H       -1.45330000      -0.25840000       1.63140000
H       -2.55140000      -2.30680000       0.29880000
H       -0.61900000      -3.73100000      -0.80460000
H        1.72140000      -2.60700000      -0.20800000
H        1.18900000      -0.83720000       1.88040000
