18
Properties=species:S:1:pos:R:3 gdb_104104=T pbc="F F F"
C       -0.11950000       1.62740000      -0.06170000
C        0.01000000       0.11290000      -0.07960000
C       -1.35690000      -0.58910000      -0.01790000
O       -2.04690000      -0.28870000       1.17330000
C        0.87170000      -0.43650000      -1.24250000
N        1.63400000      -1.45890000      -0.55730000
C        1.66630000      -1.25680000       0.80330000
O        2.35480000      -1.80130000       1.61940000
O        0.73340000      -0.30120000       1.11270000
H        0.86020000       2.09600000       0.06130000
H       -0.55900000       1.97660000      -1.00200000
H       -0.77080000       1.93740000       0.75780000
H       -1.98410000      -0.24320000      -0.84690000
H       -1.20350000      -1.67320000      -0.13910000
H       -1.45750000      -0.52930000       1.89870000
H        0.24790000      -0.85410000      -2.04060000
H        1.50750000       0.34720000      -1.67570000
H        2.41380000      -1.93500000      -0.97920000
