17
Properties=species:S:1:pos:R:3 gdb_32545=T pbc="F F F"
C        0.00550000       1.40880000       0.15460000
N       -0.08210000      -0.00010000      -0.11700000
C        0.58160000      -0.61100000      -1.13950000
C        1.19830000       0.02370000      -2.18060000
N        1.80950000      -0.71140000      -3.17860000
C        1.83310000      -2.06470000      -3.15530000
C        1.25430000      -2.76130000      -2.13500000
C        0.59360000      -2.09100000      -1.04460000
O        0.06690000      -2.64440000      -0.07270000
H        1.04440000       1.75510000       0.28320000
H       -0.44160000       1.99850000      -0.65790000
H       -0.54680000       1.63610000       1.06860000
H       -0.31350000      -0.65540000       0.61880000
H        1.23900000       1.09800000      -2.29510000
H        2.24990000      -0.22100000      -3.93770000
H        2.33780000      -2.54300000      -3.98600000
H        1.28870000      -3.84320000      -2.12520000
