15
Properties=species:S:1:pos:R:3 gdb_48495=T pbc="F F F"
O       -0.05370000       0.17490000      -0.64440000
C        0.01440000       1.22740000      -0.06590000
C        1.35510000       1.96270000       0.13060000
O        2.45090000       1.09720000       0.11170000
C        2.93590000       1.01670000      -1.23520000
C        2.13070000       2.08980000      -1.99670000
O        1.50540000       2.85380000      -0.95720000
C        1.43150000       2.78500000       1.42140000
O        0.58680000       2.76560000       2.27360000
H       -0.88070000       1.77540000       0.28730000
H        4.01000000       1.22360000      -1.22160000
H        2.76030000       0.01390000      -1.63270000
H        2.75060000       2.77370000      -2.57920000
H        1.37420000       1.63770000      -2.64710000
H        2.35860000       3.39100000       1.49060000
