18
Properties=species:S:1:pos:R:3 gdb_112337=T pbc="F F F"
C       -0.02930000       1.48280000       0.04260000
C       -0.00220000      -0.01010000      -0.01060000
C       -0.05010000      -0.80960000      -1.08160000
C       -0.01150000      -2.24230000      -0.66520000
O        0.02220000      -3.23560000      -1.36070000
N       -0.02280000      -2.20400000       0.71530000
C        0.06310000      -0.86270000       1.24450000
C        1.33890000      -0.65670000       2.06620000
O        1.27750000      -1.57370000       3.14780000
H        0.88440000       1.88780000       0.49490000
H       -0.12890000       1.91080000      -0.95750000
H       -0.86630000       1.84100000       0.65420000
H       -0.10610000      -0.51530000      -2.12070000
H        0.18290000      -3.01170000       1.27940000
H       -0.79110000      -0.64170000       1.90360000
H        2.21150000      -0.84350000       1.42320000
H        1.38700000       0.38320000       2.42450000
H        2.12030000      -1.55940000       3.61030000
