16
Properties=species:S:1:pos:R:3 gdb_14252=T pbc="F F F"
C        0.46730000       1.47970000      -0.09630000
C        0.10830000       0.02030000       0.07330000
O        0.86040000      -0.86190000      -0.80490000
C        1.26440000      -1.70730000       0.29200000
C        0.58060000      -0.76660000       1.32410000
N        1.91520000      -0.46530000       1.84230000
C        2.59550000      -1.24260000       0.89100000
N        3.79760000      -1.48000000       0.59050000
H        1.52350000       1.65380000       0.12680000
H        0.28500000       1.79060000      -1.12920000
H       -0.14540000       2.10620000       0.56130000
H       -0.96720000      -0.13550000      -0.09280000
H        1.06820000      -2.76690000       0.13070000
H       -0.15800000      -1.05510000       2.07150000
H        2.22830000       0.40810000       2.24460000
H        4.44930000      -0.93250000       1.15630000
