19
Properties=species:S:1:pos:R:3 gdb_50398=T pbc="F F F"
O        0.08120000      -0.12390000      -0.05690000
C        0.07890000       1.07990000      -0.09410000
C        1.31460000       1.95140000      -0.04690000
C        1.21860000       3.07490000      -1.14670000
C        0.69110000       4.29500000      -0.39700000
C        0.87600000       4.12640000       0.90650000
C        0.31360000       4.38550000       2.28560000
C        0.39000000       2.82330000       2.48070000
C        1.40580000       2.77090000       1.27470000
H       -0.87880000       1.64560000      -0.17740000
H        2.17650000       1.29570000      -0.18750000
H        2.19930000       3.24720000      -1.60910000
H        0.54650000       2.78300000      -1.96410000
H        0.17980000       5.11140000      -0.89340000
H        1.01370000       4.90150000       2.95110000
H       -0.66220000       4.87100000       2.35600000
H        0.75660000       2.46360000       3.44420000
H       -0.56630000       2.34580000       2.25920000
H        2.43160000       2.77820000       1.66070000
