19
Properties=species:S:1:pos:R:3 gdb_92218=T pbc="F F F"
C       -0.23840000       1.55990000      -0.06410000
C        0.01190000       0.05810000      -0.00170000
O        0.80970000      -0.37910000      -1.13430000
C        2.03820000      -0.78430000      -0.59390000
O        2.68850000       0.34820000       0.01290000
C        2.24880000       0.18020000       1.37800000
C        2.77340000      -1.23340000       1.70960000
C        1.70120000      -1.62300000       0.66480000
C        0.82140000      -0.44480000       1.19680000
H        0.70580000       2.10790000      -0.04190000
H       -0.76230000       1.81620000      -0.98930000
H       -0.86110000       1.87960000       0.77890000
H       -0.94650000      -0.47570000      -0.05580000
H        2.65520000      -1.20280000      -1.38780000
H        2.46700000       1.07490000       1.95830000
H        3.82490000      -1.42730000       1.48700000
H        2.51500000      -1.57550000       2.71470000
H        1.32570000      -2.63190000       0.50480000
H        0.26870000      -0.62180000       2.11860000
