23
Properties=species:S:1:pos:R:3 gdb_78025=T pbc="F F F"
C        0.31760000       2.05530000       0.20930000
C        0.30120000       0.54190000       0.16780000
C        0.61080000      -0.35670000      -1.03370000
C        1.39550000       0.13980000      -2.24090000
C        0.66250000       1.08850000      -3.19400000
C        2.66740000       0.75600000      -1.60540000
O        2.74550000       0.31890000      -0.24890000
C        1.54480000      -0.31820000       0.14380000
C        1.79640000      -1.43250000       1.12130000
H       -0.54820000       2.48310000      -0.30790000
H        0.28040000       2.39870000       1.24920000
H        1.22130000       2.47750000      -0.23130000
H       -0.49550000       0.11660000       0.77630000
H       -0.04880000      -1.20420000      -1.19160000
H        1.68690000      -0.75280000      -2.80940000
H        0.33620000       1.99710000      -2.67960000
H        1.30940000       1.38710000      -4.02660000
H       -0.22370000       0.60820000      -3.62080000
H        3.58520000       0.44610000      -2.11880000
H        2.62570000       1.85300000      -1.64390000
H        2.28210000      -1.05080000       2.02580000
H        0.85630000      -1.90740000       1.41580000
H        2.45040000      -2.19420000       0.68390000
