14
Properties=species:S:1:pos:R:3 gdb_127781=T pbc="F F F"
C        0.04470000       1.43020000      -0.03920000
N        0.02630000      -0.00980000       0.04980000
N       -0.03460000      -0.77470000      -1.09440000
N       -0.04170000      -2.02640000      -0.81310000
C        0.01570000      -2.14510000       0.56450000
C        0.04730000      -3.03380000       1.60580000
O        0.10780000      -2.32510000       2.75930000
C        0.11670000      -0.97990000       2.49030000
C        0.06030000      -0.83810000       1.13490000
H        0.96250000       1.83730000       0.39810000
H        0.00280000       1.69150000      -1.09700000
H       -0.81870000       1.86480000       0.47550000
H        0.03490000      -4.10490000       1.70260000
H        0.16330000      -0.32730000       3.34250000
