19
Properties=species:S:1:pos:R:3 gdb_121697=T pbc="F F F"
C       -0.06070000       0.79170000      -0.50860000
C       -0.44000000       0.67850000       0.97080000
C        0.50780000      -0.19400000       1.77830000
O        0.41700000      -1.53540000       1.26430000
C        1.22050000      -2.44630000       1.84780000
N        2.01890000      -2.18810000       2.78990000
N        0.98350000      -3.68100000       1.21010000
C        1.59550000      -4.87190000       1.50170000
O        2.43620000      -5.04550000       2.35450000
H       -0.05520000      -0.19150000      -0.98700000
H       -0.76780000       1.42760000      -1.04920000
H        0.93820000       1.22590000      -0.62680000
H       -0.44370000       1.67180000       1.43560000
H       -1.45810000       0.28360000       1.07100000
H        1.54630000       0.14470000       1.69790000
H        0.24850000      -0.20640000       2.84150000
H        2.51970000      -3.02920000       3.06890000
H        0.29480000      -3.66550000       0.47260000
H        1.22340000      -5.68430000       0.84940000
