20
Properties=species:S:1:pos:R:3 gdb_70470=T pbc="F F F"
C       -0.01830000       1.48620000      -0.14590000
C        0.05890000      -0.00770000      -0.00770000
C       -0.84600000      -0.79390000       0.90920000
C        0.64010000      -0.89000000       1.10750000
C        1.21790000      -1.86890000       0.08110000
C        0.68290000      -0.93460000      -1.06010000
N       -0.17910000      -1.47340000      -2.08880000
C        0.13910000      -1.47980000      -3.41230000
O        1.17250000      -1.06110000      -3.88950000
H        0.94580000       1.90860000      -0.45040000
H       -0.75870000       1.77600000      -0.90130000
H       -0.30910000       1.95830000       0.79830000
H       -1.38350000      -0.18900000       1.63290000
H       -1.40870000      -1.66270000       0.56920000
H        1.12140000      -0.58070000       2.02690000
H        2.30720000      -1.94110000       0.07980000
H        0.79890000      -2.88070000       0.10660000
H        1.50830000      -0.45240000      -1.58460000
H       -1.07850000      -1.84060000      -1.81970000
H       -0.67210000      -1.92180000      -4.02540000
