19
Properties=species:S:1:pos:R:3 gdb_70555=T pbc="F F F"
C        0.23150000       1.36050000      -0.26320000
C       -0.12690000      -0.07370000       0.06550000
C       -0.86410000      -0.37770000       1.35600000
C        0.57350000      -0.77700000       1.20520000
O        0.82370000      -2.14100000       1.00730000
C        1.58980000      -2.36030000      -0.16530000
C        0.92360000      -1.78240000      -1.41890000
O        1.39800000      -1.94730000      -2.51620000
C       -0.35030000      -0.99600000      -1.13800000
H        1.08320000       1.41020000      -0.95170000
H       -0.61010000       1.87770000      -0.73810000
H        0.49830000       1.92040000       0.63850000
H       -1.09210000       0.45110000       2.01790000
H       -1.59640000      -1.17780000       1.35480000
H        1.34240000      -0.25250000       1.77350000
H        2.60380000      -1.93850000      -0.07980000
H        1.69320000      -3.44270000      -0.28740000
H       -1.14560000      -1.72140000      -0.92980000
H       -0.63100000      -0.44390000      -2.03750000
