22
Properties=species:S:1:pos:R:3 gdb_6370=T pbc="F F F"
C       -0.08120000       1.59520000      -0.07690000
C       -0.13170000       0.09600000       0.20610000
C        0.75410000      -0.33930000       1.36780000
O        1.32060000       0.46580000       2.07320000
C        0.89850000      -1.84400000       1.57270000
C        1.52560000      -2.25760000       2.91120000
C        0.57910000      -1.97100000       4.08510000
C        1.94150000      -3.73360000       2.88250000
H        0.92980000       1.90750000      -0.35250000
H       -0.75840000       1.85900000      -0.89410000
H       -0.36510000       2.16640000       0.81010000
H       -1.15610000      -0.22420000       0.44580000
H        0.14600000      -0.49160000      -0.67950000
H       -0.08140000      -2.32140000       1.43100000
H        1.51510000      -2.20720000       0.73630000
H        2.42270000      -1.64240000       3.04750000
H       -0.34730000      -2.55220000       3.99360000
H        1.04510000      -2.24310000       5.03780000
H        0.31740000      -0.91100000       4.13140000
H        2.65380000      -3.93530000       2.07500000
H        2.41360000      -4.02620000       3.82610000
H        1.07370000      -4.38730000       2.73130000
