18
Properties=species:S:1:pos:R:3 gdb_100227=T pbc="F F F"
C        0.01040000       1.35630000      -0.14460000
O        0.00880000      -0.04700000       0.04880000
C        0.70630000      -0.54740000       1.18270000
C       -0.00870000      -0.18030000       2.49750000
C        0.65820000      -2.08710000       0.99410000
C        1.30990000      -2.54070000      -0.23170000
N        1.82440000      -2.92910000      -1.18990000
C        2.10430000      -0.08850000       1.22250000
C        3.24500000       0.28560000       1.27230000
H        1.03000000       1.75740000      -0.18860000
H       -0.48430000       1.52820000      -1.10250000
H       -0.54830000       1.88530000       0.63920000
H       -1.05440000      -0.49730000       2.44640000
H        0.47480000      -0.66790000       3.34800000
H        0.02550000       0.89720000       2.66970000
H        1.12900000      -2.57650000       1.85150000
H       -0.39400000      -2.38810000       0.96630000
H        4.25770000       0.60630000       1.30090000
