20
Properties=species:S:1:pos:R:3 gdb_105270=T pbc="F F F"
C       -1.93320000       0.04300000       0.94300000
O       -0.58770000       0.12190000       0.47750000
C        0.34450000      -0.45950000       1.36310000
C        1.72390000       0.15790000       1.23350000
C        0.84970000       0.49830000       2.41830000
O        0.26890000       1.76010000       2.53160000
C        0.19330000      -1.93390000       1.64720000
C       -0.19220000      -2.85470000       0.54360000
N        1.16230000      -2.90890000       1.10480000
H       -2.54800000       0.57060000       0.21010000
H       -2.27350000      -0.99730000       1.00930000
H       -2.04430000       0.51910000       1.92500000
H        2.59070000      -0.47610000       1.38780000
H        1.83800000       0.92210000       0.47160000
H        1.12290000       0.10810000       3.39350000
H       -0.12260000       1.95680000       1.67090000
H       -0.13050000      -2.18560000       2.65460000
H       -0.81490000      -3.72020000       0.75220000
H       -0.33330000      -2.41240000      -0.43840000
H        1.80010000      -2.42070000       0.47890000
