19
Properties=species:S:1:pos:R:3 gdb_8283=T pbc="F F F"
C       -0.06910000       1.61380000      -0.08780000
C       -0.07750000       0.09010000      -0.07610000
C        1.10410000      -0.57280000      -0.83660000
N        1.80270000      -0.74210000       0.45280000
C        2.59300000      -1.92520000       0.68410000
C        3.42520000      -1.79600000       1.95050000
O        3.70580000      -2.71000000       2.68050000
C        0.53740000      -0.55610000       1.19460000
H        0.91910000       1.99860000       0.18450000
H       -0.32170000       2.00180000      -1.08050000
H       -0.79740000       2.01770000       0.62380000
H       -1.06370000      -0.29140000      -0.34800000
H        0.81690000      -1.52670000      -1.30740000
H        1.64300000       0.03670000      -1.57170000
H        2.01240000      -2.86440000       0.73280000
H        3.31050000      -2.02860000      -0.14440000
H        3.77430000      -0.75590000       2.14210000
H        0.61660000       0.06580000       2.09370000
H        0.05090000      -1.50780000       1.46330000
