16
Properties=species:S:1:pos:R:3 gdb_126202=T pbc="F F F"
C        0.21910000       1.62460000      -0.19150000
C       -0.10310000       0.14690000       0.09400000
C        0.56030000      -0.36770000       1.32360000
C        0.07230000      -0.84560000       2.51520000
C        1.25990000      -1.15320000       3.25080000
N        2.34550000      -0.88890000       2.57700000
O        1.90030000      -0.38850000       1.34880000
C       -1.27320000      -0.99580000       2.91250000
C       -2.41870000      -1.12840000       3.25970000
H        1.29540000       1.77180000      -0.31150000
H       -0.27720000       1.94830000      -1.11030000
H       -0.12300000       2.26470000       0.62660000
H       -1.18060000       0.00490000       0.21620000
H        0.20920000      -0.46770000      -0.75920000
H        1.33590000      -1.55910000       4.24920000
H       -3.42870000      -1.24520000       3.56570000
