14
Properties=species:S:1:pos:R:3 gdb_6359=T pbc="F F F"
C        0.15320000       1.32080000       0.00750000
O       -0.05970000      -0.09210000       0.09460000
C       -1.35810000      -0.47190000      -0.02570000
O       -2.28240000       0.27350000      -0.18690000
N       -1.39110000      -1.85760000       0.05030000
C       -2.54850000      -2.65230000       0.12950000
N       -2.23460000      -4.00260000       0.08620000
O       -3.66600000      -2.22760000       0.27130000
H        1.22840000       1.46350000       0.11660000
H       -0.18740000       1.70470000      -0.95740000
H       -0.38400000       1.84250000       0.80320000
H       -0.49510000      -2.29880000       0.18710000
H       -1.44750000      -4.29760000      -0.47170000
H       -3.05180000      -4.58720000      -0.00490000
