15
Properties=species:S:1:pos:R:3 gdb_9589=T pbc="F F F"
C       -0.24070000       1.60610000      -0.14580000
C        0.10920000       0.13180000      -0.06500000
C        0.95170000      -0.50890000      -1.15120000
N        1.53070000      -0.18310000       0.12720000
C        2.02610000      -1.14210000       1.00390000
O        2.70280000      -2.08250000       0.67380000
C       -0.86300000      -0.70260000       0.60180000
C       -1.68580000      -1.36380000       1.17710000
H        0.55540000       2.15250000      -0.65670000
H       -1.17810000       1.74420000      -0.69200000
H       -0.36460000       2.02650000       0.85630000
H        0.79300000      -1.56120000      -1.36770000
H        1.26600000       0.10500000      -1.99110000
H        1.78550000      -0.89850000       2.05460000
H       -2.40820000      -1.96200000       1.67610000
