16
Properties=species:S:1:pos:R:3 gdb_4757=T pbc="F F F"
C       -0.01180000       1.40400000      -0.00560000
N        0.03240000      -0.04800000      -0.03230000
C        0.57930000      -0.63780000       0.94080000
N        0.72620000      -2.00120000       1.11030000
C        1.40690000      -2.26960000       2.29990000
C        1.72550000      -3.65020000       2.75040000
C        1.65330000      -1.07680000       2.85680000
O        1.15650000      -0.05820000       2.05630000
H        0.97640000       1.85830000       0.15530000
H       -0.39790000       1.76510000      -0.96270000
H       -0.67320000       1.78580000       0.78580000
H        0.43010000      -2.66230000       0.41560000
H        2.36100000      -4.17290000       2.02550000
H        2.25440000      -3.62260000       3.70530000
H        0.81640000      -4.24890000       2.88200000
H        2.13760000      -0.78420000       3.77140000
