20
Properties=species:S:1:pos:R:3 gdb_67957=T pbc="F F F"
C       -0.06210000       1.62260000       0.04000000
C       -0.02310000       0.10260000      -0.01870000
C       -1.33460000      -0.62390000       0.41260000
C       -0.45370000      -1.33030000       1.45930000
O       -0.57660000      -2.25740000       2.21170000
N        0.66240000      -0.54150000       1.14900000
C        1.93950000      -1.13500000       0.76500000
C        1.70990000      -1.52460000      -0.71630000
C        0.73620000      -0.44760000      -1.25860000
H        0.94800000       2.04340000      -0.00280000
H       -0.62860000       2.02480000      -0.80730000
H       -0.53480000       1.96770000       0.96430000
H       -2.12890000       0.01530000       0.80470000
H       -1.75900000      -1.31680000      -0.31780000
H        2.74530000      -0.40080000       0.87410000
H        2.15920000      -1.98760000       1.41080000
H        2.63720000      -1.57890000      -1.29240000
H        1.24270000      -2.51440000      -0.75360000
H        0.05760000      -0.84830000      -2.01620000
H        1.29520000       0.36670000      -1.73090000
