19
Properties=species:S:1:pos:R:3 gdb_86125=T pbc="F F F"
C       -0.32600000       1.59580000       0.09930000
C        0.07210000       0.12830000      -0.02920000
C        1.12840000      -0.21600000      -1.10480000
C        1.70240000      -1.59460000      -0.70350000
C        3.05450000      -1.97670000      -1.29880000
C        1.69330000      -1.55110000       0.82020000
O        2.36170000      -2.19680000       1.58190000
C        0.66210000      -0.46120000       1.24670000
O        0.42510000      -0.15000000       2.38290000
H        0.55470000       2.22420000       0.26760000
H       -0.82760000       1.94960000      -0.80600000
H       -0.99940000       1.73330000       0.94920000
H       -0.82880000      -0.47330000      -0.23420000
H        0.71340000      -0.21300000      -2.11570000
H        1.93010000       0.53370000      -1.08200000
H        0.95910000      -2.36280000      -0.97370000
H        3.80670000      -1.21250000      -1.07730000
H        3.40400000      -2.92030000      -0.87200000
H        2.99100000      -2.08580000      -2.38530000
