13
Properties=species:S:1:pos:R:3 gdb_130492=T pbc="F F F"
O       -0.06880000       1.24320000       0.00970000
N        1.15870000       1.83150000       0.00110000
C        2.01390000       0.82620000      -0.01310000
C        3.43640000       0.82250000      -0.02710000
C        4.04760000      -0.39790000      -0.04010000
C        3.30500000      -1.62990000      -0.04000000
C        1.94040000      -1.65960000      -0.02680000
C        1.27280000      -0.40350000      -0.01300000
N       -0.01560000      -0.11680000       0.00130000
H        3.99150000       1.75220000      -0.02710000
H        5.13070000      -0.45430000      -0.05110000
H        3.86080000      -2.56130000      -0.05090000
H        1.37770000      -2.58470000      -0.02660000
