18
Properties=species:S:1:pos:R:3 gdb_125109=T pbc="F F F"
C        0.09590000       1.45700000      -0.02820000
C        0.03830000      -0.03230000      -0.04050000
C        0.22210000      -0.93820000      -1.06740000
O        0.51280000      -0.65120000      -2.36220000
C        0.04850000      -2.21960000      -0.48740000
C        0.12660000      -3.52360000      -1.21770000
N        1.15160000      -3.41880000      -2.28080000
H        1.10880000      -4.22590000      -2.89450000
H        0.79670000      -1.50350000      -2.74870000
H        2.07820000      -3.41340000      -1.86370000
N       -0.21740000      -2.12620000       0.81480000
N       -0.23140000      -0.80370000       1.05680000
H        0.78470000       1.83690000       0.73580000
H        0.44720000       1.80740000      -1.00130000
H       -0.88530000       1.91190000       0.15560000
H        0.30090000      -4.34000000      -0.50340000
H       -0.82630000      -3.73640000      -1.72020000
H       -0.40640000      -0.48410000       1.99380000
