19
Properties=species:S:1:pos:R:3 gdb_107299=T pbc="F F F"
O        0.14180000       1.37820000       0.23060000
C       -0.00940000       0.00770000      -0.11240000
C       -1.46260000      -0.32920000      -0.01910000
O       -1.89790000      -1.52300000      -0.67930000
C       -2.56450000      -0.29000000      -1.00130000
C       -3.60370000      -0.00220000       0.10720000
C       -4.26120000      -1.23470000       0.79690000
C       -3.09810000      -1.27330000       1.83940000
C       -2.43840000      -0.04280000       1.15100000
H        1.08040000       1.55740000       0.33590000
H        0.33720000      -0.20820000      -1.13420000
H        0.55800000      -0.64100000       0.57490000
H       -2.58110000      -0.01230000      -2.05020000
H       -4.19880000       0.89810000      -0.04500000
H       -5.23590000      -1.00960000       1.23590000
H       -4.35240000      -2.12130000       0.16700000
H       -3.42070000      -1.06920000       2.86310000
H       -2.49800000      -2.18530000       1.83270000
H       -2.17820000       0.83100000       1.74610000
