18
Properties=species:S:1:pos:R:3 gdb_37780=T pbc="F F F"
C       -0.01420000       1.40380000       0.22480000
N        1.43230000       1.56380000      -0.21480000
C        2.31490000       0.33920000       0.08230000
C        2.36960000      -0.62690000       1.22370000
C        1.74360000      -1.80970000       1.29460000
C        0.65430000      -2.27880000       0.32590000
C       -0.34710000      -1.14580000       0.29460000
C       -0.00530000      -0.01200000      -0.30410000
C        1.31650000       0.27340000      -0.99330000
H       -0.20630000       1.53460000       1.29520000
H       -0.58910000       2.14070000      -0.34530000
H        3.31390000       0.64680000      -0.22510000
H        3.09440000      -0.38210000       1.99710000
H        1.97430000      -2.46650000       2.12990000
H        1.08100000      -2.45540000      -0.66840000
H        0.22150000      -3.22330000       0.66380000
H       -1.13540000      -1.15020000       1.04440000
H        1.53070000       0.21970000      -2.05700000
