14
Properties=species:S:1:pos:R:3 gdb_51691=T pbc="F F F"
N       -0.26600000       1.22830000       0.06940000
C       -0.08400000      -0.00880000       0.12060000
O        0.94850000      -0.68440000       0.69700000
C        0.81840000      -2.07870000       0.42480000
C       -0.62530000      -2.20380000      -0.06600000
O       -1.43600000      -2.63440000       1.01220000
C       -2.69520000      -3.05380000       0.70730000
O       -3.46990000      -3.38780000       1.54570000
O       -0.95870000      -0.89310000      -0.45100000
H        0.50310000       1.72250000       0.51480000
H        1.53690000      -2.37540000      -0.34580000
H        0.98700000      -2.64710000       1.33980000
H       -0.76340000      -2.85890000      -0.93010000
H       -2.89530000      -3.05750000      -0.37990000
