20
Properties=species:S:1:pos:R:3 gdb_108023=T pbc="F F F"
C        0.07080000       1.46170000      -0.23750000
C       -0.08110000      -0.00860000       0.17550000
C       -1.50700000      -0.50840000       0.13770000
C       -2.61090000       0.06530000       1.01560000
N       -3.77980000      -0.73400000       0.63010000
C       -3.65690000      -1.09860000      -0.79380000
C       -3.32950000      -2.09000000       0.26640000
C       -1.81770000      -1.97670000      -0.07360000
C       -2.15130000      -0.96630000      -1.15650000
H        1.12230000       1.76420000      -0.22270000
H       -0.31450000       1.62820000      -1.24870000
H       -0.47470000       2.12700000       0.43940000
H        0.53480000      -0.63450000      -0.48150000
H        0.32140000      -0.14710000       1.18770000
H       -2.41020000      -0.06380000       2.08510000
H       -2.81080000       1.12360000       0.81890000
H       -4.50930000      -0.99380000      -1.45280000
H       -3.86130000      -2.95420000       0.64320000
H       -1.08320000      -2.76980000      -0.07170000
H       -1.72340000      -0.84340000      -2.14160000
