15
Properties=species:S:1:pos:R:3 gdb_67415=T pbc="F F F"
N       -0.13120000       1.43930000      -0.03160000
C        0.03180000       0.04780000      -0.02250000
C        0.13720000      -1.08020000      -0.99490000
O        1.23650000      -1.71210000      -0.38420000
C        0.91650000      -0.97750000       0.83180000
C       -0.38040000      -1.65570000       1.33130000
C       -1.02450000      -1.06540000       0.07480000
C       -2.39080000      -0.96130000      -0.29220000
N       -3.50230000      -0.84160000      -0.59820000
H        0.37510000       1.90040000      -0.77730000
H       -1.10230000       1.72490000      -0.04940000
H       -0.04360000      -1.18940000      -2.05630000
H        1.77520000      -0.78150000       1.46780000
H       -0.35060000      -2.74260000       1.43960000
H       -0.77020000      -1.18030000       2.23360000
