21
Properties=species:S:1:pos:R:3 gdb_91183=T pbc="F F F"
C        0.36030000       1.47180000      -0.26880000
C        0.05260000       0.03900000       0.12380000
O        0.54410000      -0.91470000      -0.85170000
C        1.36310000      -1.58170000       0.14330000
C        2.83090000      -1.27600000       0.03930000
C        3.21040000      -0.38550000       0.95660000
C        2.07930000       0.06680000       1.85110000
C        0.83910000      -0.66190000       1.28100000
C       -0.04450000      -1.29550000       2.34550000
H        1.43450000       1.63080000      -0.39340000
H       -0.12620000       1.69930000      -1.22270000
H       -0.02140000       2.17460000       0.48020000
H       -1.03380000      -0.07940000       0.24570000
H        1.12870000      -2.65280000       0.18330000
H        3.47530000      -1.73030000      -0.70490000
H        4.22160000      -0.00880000       1.07560000
H        2.26000000      -0.21590000       2.89720000
H        1.96920000       1.15820000       1.85170000
H       -0.49120000      -0.53190000       2.99350000
H       -0.86110000      -1.86930000       1.89490000
H        0.53240000      -1.97470000       2.98310000
