17
Properties=species:S:1:pos:R:3 gdb_30107=T pbc="F F F"
C        0.31810000       1.49140000      -0.48380000
C        0.07050000       0.07230000      -0.04010000
N        1.21820000      -0.83650000      -0.02070000
C        0.57280000      -0.49000000       1.25920000
C        1.35470000       0.27510000       2.24540000
N        2.29150000       1.15810000       2.08530000
C        2.63380000       1.54410000       3.37370000
C        1.87270000       0.86230000       4.25950000
O        1.04280000       0.03990000       3.55050000
H        1.26850000       1.85600000      -0.09100000
H        0.34530000       1.54310000      -1.57740000
H       -0.48520000       2.14890000      -0.13420000
H       -0.88340000      -0.34800000      -0.36040000
H        0.94960000      -1.77790000      -0.29440000
H       -0.05780000      -1.23610000       1.73580000
H        3.40110000       2.27830000       3.56140000
H        1.78750000       0.82700000       5.33160000
