18
Properties=species:S:1:pos:R:3 gdb_22890=T pbc="F F F"
C        0.03480000       1.56810000       0.03510000
C        0.02970000       0.03310000       0.05470000
C        0.78480000      -0.60740000      -1.14590000
N        1.94780000      -1.32450000      -0.63080000
C        1.95980000      -1.26790000       0.65410000
N        2.95800000      -1.79080000       1.42430000
C        0.79960000      -0.53190000       1.23160000
N        0.39680000      -0.35460000       2.42940000
O        1.23340000      -0.94810000       3.39360000
H        1.05860000       1.95250000      -0.02610000
H       -0.51990000       1.94350000      -0.83070000
H       -0.42540000       1.96760000       0.94300000
H       -1.00720000      -0.31460000       0.09660000
H        0.14530000      -1.30250000      -1.70500000
H        1.11120000       0.15500000      -1.86490000
H        3.58300000      -2.42860000       0.95730000
H        2.75850000      -1.94870000       2.39680000
H        0.78210000      -0.73290000       4.21590000
