20
Properties=species:S:1:pos:R:3 gdb_89644=T pbc="F F F"
O       -0.12040000       1.52330000      -0.01250000
C       -0.00410000       0.11570000       0.04090000
C        0.25430000      -0.55300000       1.43900000
C       -1.07970000      -1.28490000       1.30050000
C       -2.18660000      -0.29870000       1.14580000
C       -1.33790000      -0.60450000      -0.07230000
N       -1.26540000      -2.60780000       1.79320000
C       -2.17950000      -3.48730000       1.07540000
C       -0.70820000      -3.70630000       1.00430000
H        0.74890000       1.90190000       0.15370000
H        0.71610000      -0.24620000      -0.70540000
H        1.11600000      -1.22530000       1.42810000
H        0.33760000       0.13110000       2.28960000
H       -3.18120000      -0.73290000       1.11170000
H       -2.13980000       0.68150000       1.61270000
H       -1.77520000      -0.97280000      -0.99260000
H       -2.80620000      -4.12160000       1.69520000
H       -2.66110000      -3.10470000       0.17750000
H       -0.22130000      -3.45810000       0.06320000
H       -0.23980000      -4.50390000       1.57310000
