19
Properties=species:S:1:pos:R:3 gdb_119725=T pbc="F F F"
O       -0.06910000       1.48200000       0.03620000
C        0.00850000       0.07090000       0.15560000
C       -1.37930000      -0.49460000      -0.14220000
C       -1.41960000      -1.99280000      -0.05870000
C       -0.89000000      -2.96970000      -1.10710000
O       -1.96170000      -3.92150000      -0.83360000
C       -2.56730000      -2.99330000       0.07920000
C       -1.63360000      -2.79010000       1.22420000
O       -0.78590000      -3.80780000       1.65300000
H        0.79540000       1.85040000       0.23980000
H        0.74240000      -0.35050000      -0.55130000
H        0.32000000      -0.23430000       1.16670000
H       -2.08960000      -0.05860000       0.57000000
H       -1.68940000      -0.15480000      -1.13840000
H       -0.97150000      -2.59780000      -2.13420000
H        0.10150000      -3.40500000      -0.94020000
H       -3.64890000      -2.90880000       0.06920000
H       -2.01740000      -2.19510000       2.04930000
H       -0.93590000      -4.54730000       1.04770000
