13
Properties=species:S:1:pos:R:3 gdb_23709=T pbc="F F F"
N       -0.01370000       1.41070000       0.15220000
C        0.01550000       0.01820000       0.04640000
C       -1.16250000      -0.73690000       0.02440000
N       -1.19080000      -2.07120000      -0.01200000
C       -0.04210000      -2.70270000      -0.03090000
F       -0.09300000      -4.03610000      -0.06970000
C        1.20170000      -2.07940000      -0.01730000
C        1.22270000      -0.69460000       0.02300000
H        0.78650000       1.88020000      -0.24690000
H       -0.87460000       1.83480000      -0.16360000
H       -2.12850000      -0.23530000       0.03920000
H        2.11110000      -2.66700000      -0.03850000
H        2.16900000      -0.16240000       0.04020000
