16
Properties=species:S:1:pos:R:3 gdb_72115=T pbc="F F F"
O        0.09790000       1.41050000      -0.07490000
C        0.01380000       0.04040000      -0.02710000
C        0.79780000      -0.78510000      -1.06300000
N        0.07880000      -2.09230000      -0.90440000
C       -1.31590000      -1.66470000      -1.33030000
C       -1.35620000      -0.83800000      -0.05330000
C       -0.40470000      -1.93490000       0.55950000
C        0.32090000      -0.77840000       1.22420000
O        0.64200000      -0.49180000       2.34360000
H        0.06760000       1.74300000       0.83130000
H        0.70480000      -0.41570000      -2.08630000
H        1.85820000      -0.88350000      -0.81410000
H       -1.36990000      -1.17340000      -2.30660000
H       -1.99120000      -2.52360000      -1.31170000
H       -2.22830000      -0.42310000       0.44970000
H       -0.71740000      -2.85340000       1.04610000
