23
Properties=species:S:1:pos:R:3 gdb_97971=T pbc="F F F"
C        0.64290000       1.17560000      -0.43450000
C       -0.32040000       0.23890000       0.31700000
C        0.27220000      -0.36520000       1.50530000
C        0.78410000      -0.85850000       2.47690000
C        1.38400000      -1.44000000       3.67070000
O        1.95610000      -2.69780000       3.36020000
C        2.71220000      -3.28110000       4.41810000
C        1.81430000      -3.84770000       5.52290000
C        3.57860000      -4.35860000       3.77570000
H        1.53440000       0.63360000      -0.76100000
H        0.15350000       1.59950000      -1.31660000
H        0.96600000       1.99840000       0.20910000
H       -1.22360000       0.79310000       0.60350000
H       -0.66000000      -0.55700000      -0.35820000
H        2.15790000      -0.76020000       4.06920000
H        0.61610000      -1.53240000       4.45580000
H        3.36670000      -2.50620000       4.85440000
H        2.42150000      -4.31360000       6.30560000
H        1.20660000      -3.07130000       5.99670000
H        1.14120000      -4.60570000       5.10940000
H        4.20450000      -3.92600000       2.99110000
H        4.22480000      -4.83160000       4.52110000
H        2.94830000      -5.13090000       3.32350000
