19
Properties=species:S:1:pos:R:3 gdb_47437=T pbc="F F F"
O        0.15180000       0.10800000       0.38830000
C        0.04470000       1.27530000       0.12430000
C       -1.24060000       2.00060000      -0.28600000
O       -0.86000000       3.32340000      -0.60770000
C        0.31020000       3.63310000       0.15080000
C        1.14840000       2.34630000       0.16200000
C        2.12660000       2.18480000       1.29730000
C        3.28990000       1.23740000       1.17240000
C        3.53380000       2.72490000       1.18450000
H       -1.71690000       1.53160000      -1.15190000
H       -1.95090000       1.96400000       0.55790000
H        0.80110000       4.48050000      -0.33110000
H        0.04270000       3.92530000       1.18010000
H        1.67860000       2.26700000      -0.79840000
H        1.67030000       2.24710000       2.28220000
H        3.57120000       0.65920000       2.04480000
H        3.41010000       0.70670000       0.23460000
H        3.82140000       3.20120000       0.25270000
H        3.98360000       3.16910000       2.06520000
