15
Properties=species:S:1:pos:R:3 gdb_45664=T pbc="F F F"
O       -0.06910000      -0.06210000      -0.12840000
C       -0.06050000       1.12570000       0.03920000
C       -1.35840000       2.01380000       0.01560000
N       -1.20370000       2.79290000       1.23270000
C       -0.12280000       3.44700000       1.22940000
N        0.83390000       3.32460000       2.34420000
C        1.79110000       2.94320000       1.24810000
C        0.96330000       3.45350000       0.12810000
C        1.21140000       1.96670000       0.15960000
H       -1.35980000       2.58710000      -0.92320000
H       -2.24800000       1.38650000       0.05910000
H        1.15120000       4.24280000       2.66550000
H        2.86120000       2.98410000       1.41390000
H        1.14720000       4.14510000      -0.68380000
H        2.00860000       1.56230000      -0.45990000
