18
Properties=species:S:1:pos:R:3 gdb_96820=T pbc="F F F"
C        0.25910000       1.42770000      -0.22540000
N        0.36910000      -0.02400000      -0.17850000
C        0.53990000      -0.59350000       0.91900000
O        0.65520000      -0.06830000       2.20170000
C        0.78360000      -1.40970000       2.78550000
C       -0.25540000      -1.70680000       3.74930000
C       -1.10580000      -1.97280000       4.55570000
C        0.67960000      -2.03730000       1.35450000
C       -0.47100000      -2.97740000       1.02660000
H        1.08060000       1.83030000      -0.82860000
H       -0.67230000       1.69770000      -0.73440000
H        0.27660000       1.91070000       0.75830000
H        1.77210000      -1.51230000       3.24340000
H       -1.85760000      -2.20000000       5.27110000
H        1.63390000      -2.46950000       1.04070000
H       -1.42600000      -2.56980000       1.36720000
H       -0.52630000      -3.12260000      -0.05560000
H       -0.32670000      -3.95270000       1.50050000
