17
Properties=species:S:1:pos:R:3 gdb_55928=T pbc="F F F"
C       -0.18150000       1.43380000      -0.00900000
C       -0.02060000      -0.05660000       0.15990000
O        0.95010000      -0.61700000       0.60270000
O       -1.13230000      -0.70680000      -0.25630000
C       -1.09440000      -2.12620000      -0.14270000
C       -1.36740000      -2.77840000       1.25690000
C       -2.55720000      -3.49640000       0.60660000
O       -3.44500000      -2.47330000       0.15240000
C       -2.34070000      -2.81790000      -0.68710000
H        0.72620000       1.93710000       0.32140000
H       -0.38400000       1.67360000      -1.05660000
H       -1.03770000       1.78430000       0.57430000
H       -0.16980000      -2.50770000      -0.58080000
H       -0.54880000      -3.42250000       1.58090000
H       -1.64440000      -2.08820000       2.05550000
H       -2.97740000      -4.47240000       0.81570000
H       -2.56070000      -3.11940000      -1.70420000
