19
Properties=species:S:1:pos:R:3 gdb_35935=T pbc="F F F"
N        0.05420000      -1.18650000      -0.42570000
C        0.00160000      -0.04940000      -0.22230000
C       -0.01350000       1.41900000       0.00280000
C       -0.89220000       1.78320000       1.21910000
C       -0.49050000       1.17880000       2.54380000
C        0.72480000       1.21140000       3.08960000
C        1.96060000       1.83520000       2.48600000
C        2.25980000       1.42440000       1.03880000
N        1.32250000       2.00710000       0.07090000
H       -0.49670000       1.85910000      -0.87740000
H       -0.87810000       2.87920000       1.28060000
H       -1.92020000       1.49120000       0.98460000
H       -1.29080000       0.70060000       3.10230000
H        0.85000000       0.75640000       4.06930000
H        1.88330000       2.93110000       2.52090000
H        2.82940000       1.56620000       3.09590000
H        3.25080000       1.80360000       0.76940000
H        2.30110000       0.32500000       0.97400000
H        1.73870000       1.96590000      -0.85250000
