18
Properties=species:S:1:pos:R:3 gdb_44503=T pbc="F F F"
O       -0.00100000       0.11150000       0.76370000
C       -0.02690000       1.16780000       0.17810000
C       -1.32120000       1.87000000      -0.20030000
C       -1.08530000       3.18280000      -0.92890000
C        0.03280000       3.24520000      -2.01830000
C        0.07990000       4.77900000      -1.82230000
C        0.04650000       4.13080000      -0.41810000
N        1.10870000       3.17120000      -0.94140000
C        1.24890000       1.89620000      -0.23700000
H       -1.91410000       1.17850000      -0.81260000
H       -1.90200000       2.02560000       0.71780000
H       -2.02800000       3.67490000      -1.19320000
H        0.11450000       2.67540000      -2.94670000
H        1.02090000       5.25600000      -2.09440000
H       -0.80140000       5.34470000      -2.12780000
H        0.14460000       4.61430000       0.55660000
H        1.85060000       2.06030000       0.66610000
H        1.83620000       1.21350000      -0.86420000
