17
Properties=species:S:1:pos:R:3 gdb_32670=T pbc="F F F"
C        0.01170000       1.54790000      -0.07550000
C       -0.02310000       0.02760000       0.07630000
N       -1.38820000      -0.51410000       0.04840000
C       -2.02680000      -0.85850000       1.18070000
N       -3.23620000      -1.33560000       1.24750000
C       -3.83410000      -1.47250000       0.01900000
N       -3.33770000      -1.18900000      -1.14330000
C       -2.05000000      -0.67000000      -1.20240000
N       -1.42430000      -0.33090000      -2.26130000
H        1.04900000       1.89450000      -0.04900000
H       -0.42740000       1.83900000      -1.03110000
H       -0.53420000       2.03920000       0.73600000
H        0.52080000      -0.44610000      -0.74300000
H        0.42690000      -0.28310000       1.02420000
H       -1.45800000      -0.71840000       2.09820000
H       -4.84680000      -1.87150000       0.04300000
H       -2.02730000      -0.51510000      -3.06120000
