17
Properties=species:S:1:pos:R:3 gdb_32294=T pbc="F F F"
C       -0.43920000       1.37840000      -0.05100000
N        0.31500000       0.12920000       0.05960000
C        0.76330000      -0.59350000      -1.03530000
C        0.68300000      -1.95600000      -1.08280000
C        1.25670000      -2.70230000      -2.16110000
C        1.84310000      -2.03310000      -3.16400000
O        1.91790000      -0.67710000      -3.16880000
C        1.45310000       0.10970000      -2.12950000
N        1.64450000       1.36830000      -2.16630000
H        0.13030000       2.09270000      -0.64130000
H       -1.42800000       1.23940000      -0.51510000
H       -0.58500000       1.77450000       0.95750000
H       -0.07910000      -0.48700000       0.75770000
H        0.18060000      -2.48610000      -0.27910000
H        1.20710000      -3.78280000      -2.18430000
H        2.30610000      -2.46070000      -4.04260000
H        2.15610000       1.62070000      -3.01200000
