19
Properties=species:S:1:pos:R:3 gdb_22307=T pbc="F F F"
C       -0.18790000       1.52590000       0.07480000
C        0.02670000       0.00730000      -0.01140000
C        0.82910000      -0.40920000      -1.25700000
C        2.28230000      -0.00250000      -1.14290000
C        2.88070000      -0.16240000       0.16440000
C        2.08830000      -0.41990000       1.23110000
N        0.71990000      -0.51990000       1.16990000
N        2.85300000       0.39420000      -2.22650000
O        4.21540000       0.69300000      -2.01230000
H        0.76760000       2.05570000       0.11820000
H       -0.73780000       1.88370000      -0.80160000
H       -0.76770000       1.78700000       0.96640000
H       -0.95220000      -0.48350000      -0.05580000
H        0.77850000      -1.50180000      -1.34750000
H        0.38850000       0.01870000      -2.16000000
H        3.95190000      -0.09550000       0.27910000
H        2.51170000      -0.58410000       2.21750000
H        0.23030000      -0.41700000       2.04500000
H        4.50140000       0.94650000      -2.89520000
