16
Properties=species:S:1:pos:R:3 gdb_28375=T pbc="F F F"
C        0.08120000       1.49940000       0.03430000
C       -0.04100000       0.00720000      -0.07260000
N        0.11200000      -0.59200000      -1.21130000
C       -0.01900000      -1.96670000      -1.20930000
C       -0.29250000      -2.70640000      -0.10660000
O       -0.42810000      -4.05900000      -0.06850000
C       -0.46900000      -2.05500000       1.18650000
N       -0.72840000      -2.57090000       2.32830000
N       -0.31810000      -0.66950000       1.08200000
H        0.88390000       1.78170000       0.72500000
H        0.30080000       1.90610000      -0.95190000
H       -0.84740000       1.94630000       0.40730000
H        0.11340000      -2.44900000      -2.17640000
H       -0.29900000      -4.41700000      -0.95370000
H       -0.80730000      -3.58150000       2.23520000
H       -0.43120000      -0.16920000       1.95350000
