19
Properties=species:S:1:pos:R:3 gdb_65436=T pbc="F F F"
C        0.02010000       1.53740000      -0.12730000
C        0.00290000       0.01920000      -0.01170000
C        1.31450000      -0.74850000      -0.13610000
C        0.62100000      -0.68730000       1.19670000
C        1.21560000       0.06880000       2.37180000
C        2.16880000      -0.81280000       3.15590000
O        3.30480000      -0.52410000       3.42660000
C       -1.17400000      -0.60060000      -0.56520000
C       -2.16620000      -1.10060000      -1.02710000
H        0.95450000       1.95980000       0.24890000
H       -0.08340000       1.83400000      -1.17520000
H       -0.80920000       1.98320000       0.43060000
H        1.31060000      -1.68230000      -0.68530000
H        2.20980000      -0.14860000      -0.26670000
H        0.09320000      -1.59230000       1.48470000
H        1.76050000       0.96420000       2.06610000
H        0.41180000       0.37570000       3.05760000
H        1.73230000      -1.78780000       3.47710000
H       -3.03870000      -1.54590000      -1.43660000
