15
Properties=species:S:1:pos:R:3 gdb_10108=T pbc="F F F"
N        0.20650000       1.47820000       0.29330000
C        0.07790000       0.04590000       0.07500000
C        0.76060000      -0.72610000       1.23140000
N        0.32300000      -0.31320000       2.55150000
C        1.06360000       0.57200000       3.27960000
O        2.16560000       0.96850000       2.96880000
C        0.57400000      -2.17240000       1.05070000
N        0.39520000      -3.30230000       0.88990000
H        1.18200000       1.76000000       0.28800000
H       -0.26170000       1.98970000      -0.44650000
H       -0.98830000      -0.20960000       0.05550000
H        0.51280000      -0.33500000      -0.86410000
H        1.83450000      -0.50730000       1.20900000
H       -0.63340000      -0.48460000       2.82050000
H        0.54870000       0.87230000       4.21070000
