19
Properties=species:S:1:pos:R:3 gdb_84825=T pbc="F F F"
O        0.06130000       1.46090000       0.60290000
C       -0.03500000       0.14520000       0.05710000
C        0.92010000      -0.80950000       0.73180000
C        0.28360000      -1.68620000       1.50880000
C       -1.21620000      -1.54010000       1.44030000
C       -1.42110000      -0.54870000       0.26330000
C       -2.58530000       0.43740000       0.44390000
C       -3.91110000      -0.28500000       0.43890000
O       -4.66810000      -0.35320000       1.37340000
H        0.14220000       1.37170000       1.55930000
H        0.16930000       0.28640000      -1.00930000
H        1.99500000      -0.70600000       0.63600000
H        0.76570000      -2.42660000       2.13860000
H       -1.72230000      -2.49650000       1.26680000
H       -1.62300000      -1.15510000       2.38580000
H       -1.60430000      -1.14310000      -0.64080000
H       -2.48960000       0.99910000       1.37600000
H       -2.57950000       1.15440000      -0.38790000
H       -4.15080000      -0.79260000      -0.52660000
