18
Properties=species:S:1:pos:R:3 gdb_73598=T pbc="F F F"
C        0.10110000       1.56730000      -0.11870000
C       -0.02330000       0.07530000       0.07020000
C       -1.38980000      -0.58310000      -0.10300000
C       -1.32920000      -1.84730000       0.78670000
O       -0.19910000      -1.69150000       1.66670000
C        0.62320000      -0.69270000       1.17480000
C        1.19830000      -0.80990000      -0.24840000
C        1.09890000      -2.00830000      -1.02440000
N        1.01220000      -2.97170000      -1.66100000
H        1.10200000       1.92240000       0.14540000
H       -0.08810000       1.85240000      -1.15930000
H       -0.62060000       2.09810000       0.51190000
H       -2.15460000       0.11660000       0.24830000
H       -1.61810000      -0.83470000      -1.14250000
H       -2.21780000      -1.97340000       1.41130000
H       -1.19350000      -2.75040000       0.18610000
H        1.25430000      -0.25150000       1.93840000
H        2.12220000      -0.26260000      -0.41080000
