19
Properties=species:S:1:pos:R:3 gdb_1355=T pbc="F F F"
C       -0.27270000       1.52640000       0.01890000
C        0.08660000       0.04320000      -0.04660000
O       -1.10530000      -0.73910000      -0.23010000
C        1.11110000      -0.31370000      -1.14370000
C        1.60290000      -1.70600000      -0.72780000
C        1.76260000      -1.58730000       0.80440000
C        0.73560000      -0.50690000       1.24660000
H        0.61340000       2.14440000       0.19570000
H       -0.72810000       1.86030000      -0.92170000
H       -0.99100000       1.70970000       0.82370000
H       -1.49490000      -0.48260000      -1.07330000
H        0.67020000      -0.27800000      -2.14650000
H        1.93820000       0.40800000      -1.12430000
H        0.83070000      -2.44270000      -0.96790000
H        2.52490000      -2.00940000      -1.23110000
H        1.60670000      -2.54340000       1.31050000
H        2.77920000      -1.26280000       1.05120000
H        1.22530000       0.30060000       1.79820000
H       -0.05120000      -0.90980000       1.88840000
