17
Properties=species:S:1:pos:R:3 gdb_113630=T pbc="F F F"
C        0.64120000       1.62550000       0.06210000
C        0.61060000       0.11620000      -0.16650000
N        0.63170000      -0.56630000       1.13260000
C       -0.61170000      -0.85920000       1.78900000
C        0.24030000      -1.98440000       1.25370000
C       -0.28500000      -2.75140000       0.09410000
O       -1.04670000      -2.33950000      -0.75190000
C        0.21810000      -4.14130000       0.01490000
N        0.60110000      -5.23110000      -0.03930000
H        1.51340000       1.91220000       0.65570000
H        0.68230000       2.15010000      -0.89680000
H       -0.25660000       1.96170000       0.59080000
H       -0.25860000      -0.16350000      -0.77430000
H        1.50810000      -0.20060000      -0.70910000
H       -0.64320000      -0.71450000       2.86560000
H       -1.54100000      -0.67160000       1.25290000
H        0.86290000      -2.55930000       1.93330000
