14
Properties=species:S:1:pos:R:3 gdb_130707=T pbc="F F F"
O        0.03830000       0.07340000      -0.18320000
C        0.02400000       1.26760000      -0.12230000
N       -0.92210000       2.15470000       0.29270000
N       -0.51680000       3.48040000       0.20030000
C        0.67610000       3.37380000      -0.27890000
O        1.09450000       2.10120000      -0.49900000
N        1.52090000       4.38620000      -0.66070000
C        1.49540000       5.63440000       0.09410000
C        2.67360000       4.72670000       0.18670000
H       -1.84770000       1.92420000       0.60650000
H        1.54680000       6.53100000      -0.51420000
H        0.82330000       5.68150000       0.94520000
H        2.80380000       4.16110000       1.10490000
H        3.58410000       4.94780000      -0.35920000
