14
Properties=species:S:1:pos:R:3 gdb_128034=T pbc="F F F"
C       -0.24330000       1.62950000      -0.07230000
N        0.01000000       0.20520000      -0.06870000
C       -0.96150000      -0.56560000       0.15260000
N       -0.84620000      -1.95020000       0.18210000
C        0.27800000      -2.70170000      -0.00940000
N        1.49980000      -2.31310000      -0.26600000
O        2.18330000      -3.50350000      -0.35320000
N        1.32390000      -4.54910000      -0.14190000
N        0.17290000      -4.08360000       0.06650000
H        0.38600000       2.11340000       0.68290000
H        0.04570000       2.04850000      -1.04250000
H       -1.29450000       1.89640000       0.12500000
H       -1.99420000      -0.24390000       0.34460000
H       -1.67690000      -2.48900000       0.36740000
