23
Properties=species:S:1:pos:R:3 gdb_59239=T pbc="F F F"
C        1.20000000       0.58880000       1.05750000
C        0.14890000       0.52040000      -0.05130000
O       -0.20210000       1.82770000      -0.51280000
C        0.65970000      -0.23050000      -1.27420000
C        1.04380000      -1.70850000      -1.12810000
C       -0.16150000      -2.57310000      -0.86900000
C        0.09800000      -2.09220000      -2.26800000
C       -0.32610000      -0.62390000      -2.44570000
C       -1.80730000      -0.26900000      -2.36890000
H        1.46690000      -0.41350000       1.40720000
H        2.10500000       1.08700000       0.69470000
H        0.82330000       1.15230000       1.91920000
H       -0.74690000       0.01610000       0.34350000
H       -0.55010000       2.32250000       0.23580000
H        1.49260000       0.35080000      -1.68290000
H        2.04680000      -2.07040000      -0.93480000
H        0.06060000      -3.62170000      -0.69660000
H       -1.00860000      -2.20910000      -0.29440000
H        0.27220000      -2.79000000      -3.07880000
H        0.08040000      -0.23010000      -3.38190000
H       -2.29200000      -0.70410000      -1.48890000
H       -1.93990000       0.81510000      -2.31880000
H       -2.33730000      -0.64480000      -3.25120000
