18
Properties=species:S:1:pos:R:3 gdb_4336=T pbc="F F F"
C       -0.01910000       1.52770000       0.00480000
C       -0.00880000       0.01820000      -0.00890000
C        0.01890000      -0.68640000      -1.21520000
C        0.05030000      -2.07750000      -1.21900000
C        0.05370000      -2.78330000      -0.01980000
C        0.02640000      -2.10480000       1.20140000
C        0.05380000      -2.86180000       2.50730000
C       -0.00900000      -0.70850000       1.18410000
H        0.99740000       1.93300000      -0.07360000
H       -0.59200000       1.93170000      -0.83550000
H       -0.45310000       1.91710000       0.93020000
H        0.00950000      -0.14200000      -2.15500000
H        0.06400000      -2.61490000      -2.16200000
H        0.07140000      -3.86930000      -0.03010000
H        1.08130000      -3.10870000       2.80230000
H       -0.38490000      -2.27540000       3.31970000
H       -0.49540000      -3.80550000       2.43450000
H       -0.04100000      -0.17050000       2.12870000
