13
Properties=species:S:1:pos:R:3 gdb_27497=T pbc="F F F"
N        0.04440000       1.36850000      -0.07270000
C       -0.11900000       0.01710000      -0.09750000
C       -1.25200000      -0.68240000       0.10780000
C       -1.24210000      -2.10780000      -0.03400000
N       -2.22670000      -2.88270000       0.12090000
O        0.02050000      -2.66150000      -0.38040000
C        1.14590000      -1.95700000      -0.56160000
O        2.18870000      -2.45540000      -0.83380000
O        1.06030000      -0.59100000      -0.41990000
H        0.98830000       1.70110000       0.04910000
H       -0.67380000       1.91140000       0.37780000
H       -2.18120000      -0.19920000       0.36870000
H       -1.95950000      -3.85410000      -0.03380000
