22
Properties=species:S:1:pos:R:3 gdb_81783=T pbc="F F F"
C       -0.48560000       1.40110000       0.41810000
N       -0.06770000       0.02970000       0.19080000
C        0.26360000      -0.37530000      -1.16990000
C        1.56060000       0.23800000      -1.67560000
C        1.61240000      -0.91090000      -0.71860000
O        2.30990000      -2.05470000      -1.05470000
C        1.25710000      -0.48130000       0.72120000
C        2.18790000       0.52130000       1.39880000
C        1.00220000      -1.68320000       1.63370000
H        0.18630000       2.16970000      -0.00070000
H       -1.47320000       1.54600000      -0.03330000
H       -0.58520000       1.58630000       1.49220000
H       -0.48940000      -0.78490000      -1.83530000
H        1.81880000      -0.04470000      -2.69160000
H        1.86520000       1.24230000      -1.39600000
H        1.85980000      -2.80990000      -0.65990000
H        2.40190000       1.38810000       0.76960000
H        1.76210000       0.88350000       2.34110000
H        3.14100000       0.03590000       1.63250000
H        1.93660000      -2.20190000       1.87670000
H        0.54150000      -1.35630000       2.57090000
H        0.31280000      -2.39030000       1.16140000
