16
Properties=species:S:1:pos:R:3 gdb_30850=T pbc="F F F"
C        0.36920000       1.22690000       0.33690000
N       -0.33140000       0.08890000      -0.26640000
C        0.36740000      -0.68530000      -1.16430000
C        0.72260000      -1.99540000      -1.19540000
N        0.40380000      -3.00530000      -0.30090000
N        1.44230000      -2.28270000      -2.35280000
C        1.48080000      -1.13970000      -2.96500000
O        2.07120000      -0.87450000      -4.13020000
O        0.87920000      -0.11720000      -2.38080000
H        1.27610000       0.86530000       0.82970000
H        0.65930000       1.99960000      -0.38900000
H       -0.27520000       1.68490000       1.09350000
H       -1.25710000       0.35380000      -0.58670000
H        0.13530000      -2.65110000       0.60720000
H        1.12830000      -3.70730000      -0.23390000
H        2.45540000      -1.70620000      -4.43630000
