18
Properties=species:S:1:pos:R:3 gdb_85642=T pbc="F F F"
C        0.95040000       1.25920000      -0.32150000
C        0.09460000       0.03280000      -0.02920000
C        0.13790000      -1.06550000      -1.10960000
C        1.25770000      -2.01040000      -0.61270000
C        2.57290000      -1.70890000      -1.16900000
C        3.64760000      -1.46090000      -1.64640000
C        1.21860000      -1.78180000       0.90190000
N        1.70420000      -2.56750000       1.75900000
O        0.56580000      -0.61990000       1.17460000
H        1.97670000       0.97190000      -0.56570000
H        0.53430000       1.81320000      -1.16920000
H        0.96880000       1.92220000       0.54760000
H       -0.93390000       0.34100000       0.18140000
H       -0.81030000      -1.60930000      -1.13030000
H        0.32970000      -0.66690000      -2.10620000
H        1.02290000      -3.05960000      -0.80990000
H        4.60510000      -1.25270000      -2.05600000
H        1.55910000      -2.20420000       2.70270000
