13
Properties=species:S:1:pos:R:3 gdb_127356=T pbc="F F F"
C        0.01000000       1.56040000      -0.13090000
N       -0.03650000       0.12280000       0.04080000
C       -0.33380000      -0.83790000      -0.90230000
N       -0.30220000      -2.06110000      -0.47210000
C        0.04440000      -1.91860000       0.87080000
C        0.23240000      -0.51580000       1.26790000
O        0.52920000       0.01970000       2.31450000
N        0.32090000      -3.76790000       2.43180000
N        0.18650000      -2.92820000       1.68550000
H        0.28010000       1.98660000       0.83700000
H        0.76280000       1.84610000      -0.87190000
H       -0.96400000       1.95390000      -0.43750000
H       -0.57310000      -0.56340000      -1.92130000
