19
Properties=species:S:1:pos:R:3 gdb_49235=T pbc="F F F"
O        0.06510000      -0.02000000       0.43270000
C        0.19860000       1.18070000       0.51290000
C        1.30780000       1.94200000      -0.08880000
C        1.33370000       3.27240000       0.08440000
C        2.38660000       4.18020000      -0.47430000
C        3.65200000       3.45710000      -0.90360000
C        4.36540000       2.55390000       0.07400000
C        3.62750000       1.95900000      -1.10020000
C        2.33930000       1.18470000      -0.88270000
H       -0.53700000       1.80540000       1.06960000
H        0.53210000       3.73870000       0.65570000
H        1.95560000       4.71190000      -1.33700000
H        2.61850000       4.96650000       0.25760000
H        4.28280000       4.02850000      -1.57760000
H        5.44950000       2.53810000       0.06600000
H        3.92400000       2.43210000       1.05840000
H        4.24730000       1.56830000      -1.90150000
H        2.53140000       0.22380000      -0.39110000
H        1.90180000       0.92370000      -1.85640000
