18
Properties=species:S:1:pos:R:3 gdb_41249=T pbc="F F F"
C        0.02480000       1.49080000      -0.26190000
O        1.42550000       1.58910000       0.15560000
C        1.27070000       0.35600000       0.86580000
C        1.95380000      -0.99730000       1.07040000
N        0.77520000      -1.25840000       2.00360000
C       -0.59100000      -0.79700000       1.30750000
C       -0.73540000       0.22950000       2.44330000
C        0.78710000       0.22570000       2.36000000
C       -0.00310000      -0.01830000       0.13190000
H       -0.61160000       2.16650000       0.31860000
H       -0.08480000       1.70200000      -1.32860000
H        2.07560000      -1.65900000       0.20900000
H        2.84950000      -1.00680000       1.69720000
H       -1.31890000      -1.58730000       1.13430000
H       -1.29710000       1.14380000       2.24730000
H       -1.07070000      -0.23310000       3.37380000
H        1.45870000       0.55450000       3.15380000
H        0.17310000      -0.64210000      -0.74670000
