19
Properties=species:S:1:pos:R:3 gdb_98182=T pbc="F F F"
C       -0.15030000       1.66320000      -0.11060000
C        0.04910000       0.13980000      -0.04390000
O        0.79260000      -0.22920000       1.10710000
C       -1.30430000      -0.59850000      -0.02270000
O       -1.90110000      -0.28630000       1.23120000
C        0.81860000      -0.33440000      -1.27470000
O        0.39180000      -0.13760000      -2.39500000
C        2.13020000      -1.07300000      -1.08780000
O        2.68280000      -1.43480000      -2.31880000
H        0.81310000       2.16810000      -0.00210000
H       -0.59530000       1.94820000      -1.06700000
H       -0.80700000       1.98360000       0.70180000
H        0.15530000      -0.24750000       1.83310000
H       -1.92180000      -0.27020000      -0.86730000
H       -1.12990000      -1.67990000      -0.11410000
H       -2.61990000      -0.90280000       1.39480000
H        2.80660000      -0.42720000      -0.50610000
H        1.94210000      -1.94870000      -0.44770000
H        2.06300000      -1.09820000      -2.98550000
