18
Properties=species:S:1:pos:R:3 gdb_22837=T pbc="F F F"
O       -0.01250000       1.39490000       0.26580000
N        0.07810000       0.00040000       0.20230000
C       -1.05370000      -0.56960000      -0.04560000
C       -0.99040000      -2.07670000      -0.08980000
C       -1.52690000      -2.70160000      -1.39120000
C       -3.02180000      -2.66180000      -1.53380000
C       -3.83480000      -1.65150000      -1.18480000
C       -3.48770000      -0.34440000      -0.64780000
C       -2.30990000       0.14580000      -0.20350000
H        0.89030000       1.64340000       0.48920000
H        0.05400000      -2.36220000       0.05770000
H       -1.56350000      -2.48210000       0.75370000
H       -1.05820000      -2.20690000      -2.25480000
H       -1.19750000      -3.74560000      -1.43480000
H       -3.48270000      -3.54380000      -1.97230000
H       -4.89810000      -1.78920000      -1.36700000
H       -4.32050000       0.35610000      -0.63400000
H       -2.27790000       1.18740000       0.09320000
