19
Properties=species:S:1:pos:R:3 gdb_41414=T pbc="F F F"
C       -0.04660000       1.47030000       0.03560000
C        1.51080000       1.57400000      -0.06110000
C        1.55680000       0.08080000      -0.39810000
C        2.46640000      -1.04000000       0.05890000
O        1.77230000      -2.20790000      -0.42550000
C        0.94490000      -1.78770000      -1.49780000
C       -0.21880000      -0.82630000      -1.24860000
C        1.13100000      -0.35800000      -1.82590000
C        0.05360000      -0.09110000       0.04460000
H       -0.48730000       1.91280000       0.93100000
H       -0.56960000       1.86510000      -0.83850000
H        1.93530000       2.26700000      -0.79280000
H        1.95980000       1.78500000       0.91470000
H        3.47950000      -0.98970000      -0.37060000
H        2.54600000      -1.12180000       1.14800000
H        0.82430000      -2.54410000      -2.26390000
H       -1.16760000      -0.94220000      -1.76480000
H        1.41130000       0.08010000      -2.77550000
H       -0.20340000      -0.57160000       0.99240000
