23
Properties=species:S:1:pos:R:3 gdb_94831=T pbc="F F F"
C        0.05360000       1.53400000       0.08030000
C        0.02030000       0.01550000      -0.00940000
C        0.67050000      -0.52930000      -1.28910000
C        0.70660000      -2.06620000      -1.26980000
C        1.31920000      -2.54990000       0.03290000
C        1.81050000      -3.96530000       0.16360000
C        2.80080000      -2.82460000       0.09530000
C        0.65830000      -1.89730000       1.23080000
O        0.68930000      -0.48240000       1.14570000
H        1.08740000       1.89300000       0.06110000
H       -0.48610000       1.98260000      -0.75920000
H       -0.40760000       1.87090000       1.01260000
H       -1.03140000      -0.32740000       0.01820000
H        0.12080000      -0.16550000      -2.16480000
H        1.69210000      -0.13460000      -1.35400000
H       -0.31860000      -2.45460000      -1.35670000
H        1.26400000      -2.45430000      -2.12970000
H        1.67920000      -4.47100000       1.11540000
H        1.71940000      -4.61800000      -0.69880000
H        3.38240000      -2.70960000      -0.81370000
H        3.33570000      -2.55640000       1.00040000
H       -0.38820000      -2.24400000       1.31040000
H        1.17120000      -2.16240000       2.16080000
