19
Properties=species:S:1:pos:R:3 gdb_31617=T pbc="F F F"
C        0.34060000       0.85330000       0.65330000
N       -0.38950000       0.11720000      -0.38710000
C        0.41180000      -0.55020000      -1.33480000
C        0.96930000      -0.12340000      -2.52900000
C        1.66100000      -1.23460000      -3.08020000
O        2.35890000      -1.29280000      -4.25460000
C        1.52170000      -2.29540000      -2.21660000
N        0.74470000      -1.87010000      -1.15440000
C        0.34030000      -2.69460000      -0.03770000
H        0.92770000       0.15090000       1.25200000
H        1.02920000       1.61300000       0.25330000
H       -0.37820000       1.34270000       1.31760000
H       -1.03830000       0.73550000      -0.85810000
H        0.88610000       0.86900000      -2.94800000
H        2.32280000      -0.42600000      -4.66810000
H        1.90160000      -3.30140000      -2.27100000
H       -0.48840000      -2.19850000       0.46960000
H        0.00950000      -3.67390000      -0.39580000
H        1.15860000      -2.84470000       0.67720000
