15
Properties=species:S:1:pos:R:3 gdb_24695=T pbc="F F F"
C        0.03270000       1.36300000      -0.16710000
C        1.47490000       1.87120000       0.12750000
C        2.12730000       0.61840000       0.64840000
C        3.39120000       0.26940000       1.06470000
N        3.66720000      -0.97390000       1.50780000
C        2.65450000      -1.83340000       1.52220000
N        1.38180000      -1.62090000       1.14420000
C        1.16250000      -0.39480000       0.71580000
O       -0.05490000      -0.00830000       0.29750000
H       -0.73630000       1.93620000       0.35500000
H       -0.19700000       1.36330000      -1.23610000
H        1.95570000       2.26100000      -0.77430000
H        1.47510000       2.67630000       0.86940000
H        4.21830000       0.97590000       1.05500000
H        2.87590000      -2.83510000       1.88220000
