17
Properties=species:S:1:pos:R:3 gdb_97184=T pbc="F F F"
C       -0.11720000       1.43280000       0.06130000
N       -0.09360000      -0.02110000       0.03740000
C        0.55860000      -0.60850000      -0.87940000
C        0.60880000      -2.10990000      -0.98300000
C        1.96010000      -2.53240000      -1.53840000
O        2.21220000      -1.90430000      -2.80800000
C        1.99940000      -0.57840000      -2.92740000
O        2.40330000       0.04360000      -3.87240000
N        1.28610000       0.02350000      -1.89240000
H        0.88990000       1.86900000       0.14480000
H       -0.59310000       1.85920000      -0.83560000
H       -0.69430000       1.76800000       0.92570000
H        0.42390000      -2.54100000       0.00200000
H       -0.18370000      -2.45440000      -1.65880000
H        2.77070000      -2.27120000      -0.84680000
H        2.00500000      -3.60420000      -1.73630000
H        1.20410000       1.02260000      -2.00630000
