16
Properties=species:S:1:pos:R:3 gdb_46825=T pbc="F F F"
O       -0.04480000      -0.02470000      -0.07430000
C       -0.00980000       1.17960000       0.01000000
N       -1.08500000       2.01060000       0.21330000
C       -0.83210000       3.42920000       0.03120000
C        0.68980000       3.51010000       0.00940000
C        1.41840000       2.93620000       1.17960000
C        1.21860000       2.07810000      -0.07180000
C        2.33310000       1.67490000      -0.86770000
C        3.27440000       1.34480000      -1.53850000
H       -2.01140000       1.61920000       0.26780000
H       -1.25360000       3.79930000      -0.91330000
H       -1.26320000       4.02170000       0.84780000
H        1.15620000       4.29430000      -0.57220000
H        2.43150000       3.27880000       1.35280000
H        0.86320000       2.66060000       2.07040000
H        4.10110000       1.03970000      -2.13060000
