18
Properties=species:S:1:pos:R:3 gdb_62243=T pbc="F F F"
O       -0.29850000       1.31570000       0.13190000
C       -0.00700000      -0.06770000       0.04450000
C        0.73490000      -0.45020000      -1.24970000
C       -0.06520000      -0.07590000      -2.50080000
C        0.69100000      -0.39630000      -3.80050000
C       -0.06990000       0.07220000      -5.02170000
O       -0.37430000      -0.62410000      -5.95420000
C        0.74900000      -0.52570000       1.22860000
N        1.37080000      -0.85980000       2.14350000
H        0.53240000       1.79460000       0.23390000
H       -0.98360000      -0.56570000       0.05910000
H        1.71120000       0.05240000      -1.25580000
H        0.94010000      -1.52690000      -1.23080000
H       -1.02210000      -0.61340000      -2.49470000
H       -0.30970000       0.99130000      -2.46190000
H        1.65700000       0.13030000      -3.79420000
H        0.89100000      -1.46690000      -3.90330000
H       -0.34670000       1.15310000      -4.99860000
