17
Properties=species:S:1:pos:R:3 gdb_88244=T pbc="F F F"
C       -0.52050000       1.40470000       0.42730000
C       -0.02220000       0.01460000       0.12760000
N        1.36520000      -0.11550000      -0.32370000
C        0.98290000      -0.68980000       0.99160000
C        1.54860000      -0.08950000       2.16800000
C        2.00430000       0.39070000       3.17270000
C        2.57300000       0.98140000       4.38090000
C        1.57110000       1.64330000       5.22860000
N        0.79280000       2.16580000       5.90270000
H        0.25980000       1.99770000       0.90860000
H       -0.81650000       1.91120000      -0.49710000
H       -1.39020000       1.36930000       1.09130000
H       -0.75500000      -0.64770000      -0.33270000
H        1.45840000      -0.86760000      -1.00170000
H        0.88220000      -1.77180000       1.04870000
H        3.07770000       0.21540000       4.98380000
H        3.34240000       1.72000000       4.12070000
