21
Properties=species:S:1:pos:R:3 gdb_72388=T pbc="F F F"
C       -0.04250000       1.46330000      -0.05850000
C       -0.06510000      -0.05530000      -0.00050000
C        1.02060000      -0.71530000      -0.86130000
C        0.60860000      -2.01490000      -1.50600000
C       -0.45590000      -2.70460000      -1.10010000
C       -1.27020000      -2.21180000       0.06240000
C       -0.48510000      -2.12250000       1.42840000
C       -0.53360000      -0.59800000       1.33880000
C       -1.43050000      -0.67330000       0.10310000
H        0.92250000       1.85630000       0.28350000
H       -0.20220000       1.82110000      -1.08220000
H       -0.82190000       1.90100000       0.57330000
H        1.31560000      -0.01270000      -1.65260000
H        1.93310000      -0.86530000      -0.26460000
H        1.22250000      -2.36940000      -2.33000000
H       -0.72780000      -3.64220000      -1.57670000
H       -2.21240000      -2.75170000       0.16240000
H       -1.08530000      -2.49870000       2.26130000
H        0.49860000      -2.60180000       1.45660000
H       -0.61130000       0.06810000       2.19110000
H       -2.33960000      -0.13370000      -0.13610000
