20
Properties=species:S:1:pos:R:3 gdb_86223=T pbc="F F F"
C       -0.17100000       1.48740000       0.08310000
C        0.02920000      -0.01380000      -0.01690000
C        0.81440000      -0.51510000      -1.22960000
C        1.33220000      -1.87930000      -0.74970000
C        2.56980000      -2.41630000      -1.46300000
C        1.56000000      -1.60060000       0.76700000
O        0.81440000      -0.44250000       1.11150000
C        1.16700000      -2.74580000       1.60710000
N        0.86940000      -3.65710000       2.25240000
H        0.79100000       2.00740000       0.04390000
H       -0.79670000       1.84260000      -0.74160000
H       -0.66440000       1.74600000       1.02380000
H       -0.94990000      -0.51790000       0.02010000
H        0.20280000      -0.59210000      -2.13210000
H        1.65100000       0.16330000      -1.43780000
H        0.52140000      -2.61040000      -0.84050000
H        3.40100000      -1.70530000      -1.39710000
H        2.89870000      -3.36450000      -1.02590000
H        2.36230000      -2.59390000      -2.52240000
H        2.62180000      -1.39740000       0.96310000
