21
Properties=species:S:1:pos:R:3 gdb_95373=T pbc="F F F"
C       -0.57040000       1.44340000      -0.01480000
C        0.08030000       0.06050000      -0.04560000
C        1.11430000      -0.14540000      -1.16170000
O        1.84340000      -1.30990000      -0.79610000
C        1.90440000      -1.39010000       0.62850000
C        3.26520000      -0.93680000       1.21020000
O        2.97440000      -0.00890000       2.24510000
C        1.81940000       0.70280000       1.82910000
C        0.89350000      -0.35680000       1.19730000
H        0.16970000       2.24170000       0.10010000
H       -1.11790000       1.63450000      -0.94370000
H       -1.28460000       1.52700000       0.81040000
H       -0.70580000      -0.69130000      -0.18780000
H        0.66860000      -0.32090000      -2.14540000
H        1.77870000       0.73160000      -1.24360000
H        1.67120000      -2.42270000       0.90240000
H        3.85170000      -1.74910000       1.64660000
H        3.85200000      -0.47240000       0.40180000
H        1.39340000       1.19580000       2.70620000
H        2.09220000       1.48110000       1.09720000
H        0.26050000      -0.79690000       1.97090000
