21
Properties=species:S:1:pos:R:3 gdb_91192=T pbc="F F F"
C       -0.05410000       1.59520000      -0.03960000
C        0.06250000       0.08090000       0.01790000
C        1.03190000      -0.65310000      -0.95490000
C        1.39430000      -1.62570000       0.21620000
C        2.81040000      -2.01890000       0.48060000
C        3.49430000      -1.46110000       1.47780000
C        2.89760000      -0.36280000       2.31920000
O        1.81760000       0.29660000       1.68230000
C        0.81380000      -0.58010000       1.20560000
H        0.92200000       2.06420000       0.10500000
H       -0.45140000       1.91380000      -1.00960000
H       -0.72700000       1.97450000       0.73740000
H       -0.93050000      -0.37810000      -0.05010000
H        0.60600000      -1.08950000      -1.86130000
H        1.88420000      -0.02470000      -1.22570000
H        0.75020000      -2.51160000       0.17610000
H        3.26300000      -2.78180000      -0.14870000
H        4.51020000      -1.76630000       1.71330000
H        2.58510000      -0.75840000       3.30340000
H        3.64490000       0.41420000       2.51640000
H        0.21300000      -0.96080000       2.04510000
