18
Properties=species:S:1:pos:R:3 gdb_119865=T pbc="F F F"
C        0.00510000       1.40750000      -0.02810000
O       -0.00090000      -0.00040000       0.00680000
C        0.63570000      -0.57410000      -1.11010000
C        0.58760000      -2.05870000      -0.99850000
C        0.05440000      -2.82500000      -0.04580000
C        0.26990000      -4.26580000      -0.39920000
O        0.97680000      -4.23750000      -1.64460000
C        1.17860000      -2.93450000      -2.02330000
N        1.77290000      -2.55590000      -3.07650000
H        1.02980000       1.81110000      -0.03590000
H       -0.52270000       1.79600000      -0.91310000
H       -0.50650000       1.75780000       0.87130000
H        0.15390000      -0.26080000      -2.05220000
H        1.68630000      -0.24540000      -1.18710000
H       -0.45510000      -2.48860000       0.84560000
H        0.87430000      -4.80550000       0.34230000
H       -0.66800000      -4.82140000      -0.53350000
H        2.09120000      -3.35770000      -3.62240000
