21
Properties=species:S:1:pos:R:3 gdb_108618=T pbc="F F F"
C       -0.02830000       1.51330000       0.19330000
C        0.00740000       0.03110000       0.03420000
C       -0.01050000      -0.78150000      -1.03240000
C       -0.07190000      -0.56510000      -2.50360000
O       -0.12260000       0.81780000      -2.81610000
C        0.05270000      -2.19050000      -0.40850000
C       -0.97520000      -2.02840000       0.76100000
C        0.08000000      -0.96480000       1.21390000
C        1.15550000      -1.96880000       0.68000000
H        0.86030000       1.87300000       0.72960000
H       -0.07780000       2.01230000      -0.77390000
H       -0.89410000       1.82380000       0.79390000
H        0.80610000      -1.04400000      -2.97560000
H       -0.95460000      -1.09350000      -2.90940000
H       -0.16060000       0.90480000      -3.77270000
H        0.05150000      -3.05440000      -1.07550000
H       -1.97580000      -1.66990000       0.50670000
H       -1.02810000      -2.90180000       1.41970000
H        0.10700000      -0.55800000       2.22560000
H        1.30690000      -2.83650000       1.33100000
H        2.11240000      -1.55550000       0.35150000
