16
Properties=species:S:1:pos:R:3 gdb_85490=T pbc="F F F"
O        0.05120000       1.34020000      -0.17260000
C        0.00780000      -0.04180000       0.07440000
C        0.52180000      -0.51350000       1.44100000
C       -0.26470000      -1.78310000       1.66370000
N        0.03820000      -2.72780000       2.43980000
O       -1.37900000      -1.77350000       0.85600000
C       -1.46300000      -0.53380000       0.12180000
C       -2.37460000       0.40070000       0.77460000
C       -3.14340000       1.14940000       1.31360000
H        0.97070000       1.59880000      -0.28780000
H        0.51250000      -0.60580000      -0.72400000
H        1.59520000      -0.69730000       1.49430000
H        0.25290000       0.22970000       2.19990000
H       -0.67180000      -3.46190000       2.40620000
H       -1.83730000      -0.78110000      -0.87520000
H       -3.81910000       1.81670000       1.78950000
