15
Properties=species:S:1:pos:R:3 gdb_45927=T pbc="F F F"
N       -0.04440000       1.34000000      -0.12050000
C        0.07370000       0.09280000       0.08960000
N       -1.05300000      -0.62660000       0.53020000
C       -1.08230000      -1.95500000       0.79560000
N       -2.22380000      -2.63920000       1.23340000
H       -2.98650000      -2.60600000       0.56310000
H       -2.56820000      -2.30240000       2.12790000
N        0.04010000      -2.62370000       0.62500000
C        1.24130000      -2.08310000       0.19890000
H        2.06960000      -2.76840000       0.11020000
C        1.34650000      -0.71160000      -0.09500000
O        2.35310000      -0.10790000      -0.48110000
H        0.87710000       1.66490000      -0.42990000
H       -1.89670000      -0.08260000       0.65050000
H       -0.01740000      -3.61100000       0.83180000
