23
Properties=species:S:1:pos:R:3 gdb_70832=T pbc="F F F"
C        0.01090000       1.50720000      -0.03560000
C        0.02060000       0.00080000      -0.03850000
C        0.60930000      -0.94330000      -1.11560000
C        0.03080000      -1.89350000      -0.03830000
C        0.03720000      -3.39990000      -0.03520000
C        0.60360000      -0.94320000       1.06830000
C       -0.34040000      -0.94810000       2.27180000
C       -1.70960000      -0.95550000       1.52990000
C       -1.21690000      -0.95300000       0.08190000
H        1.03010000       1.90920000      -0.06290000
H       -0.52570000       1.90080000      -0.90630000
H       -0.47800000       1.90210000       0.86230000
H        0.11340000      -0.94600000      -2.09260000
H        1.69860000      -0.93750000      -1.23380000
H        1.06060000      -3.79090000      -0.06270000
H       -0.44730000      -3.79980000       0.86290000
H       -0.49540000      -3.79930000      -0.90570000
H        1.68220000      -0.93740000       1.24730000
H       -0.19880000      -1.82840000       2.90750000
H       -0.20830000      -0.06630000       2.90740000
H       -2.31210000      -1.83980000       1.76250000
H       -2.32160000      -0.07770000       1.76240000
H       -1.95600000      -0.95700000      -0.72400000
