16
Properties=species:S:1:pos:R:3 gdb_22936=T pbc="F F F"
O       -0.03200000       1.29170000       0.03290000
N        0.02700000      -0.10690000       0.04520000
C       -1.13350000      -0.64020000       0.00010000
C       -2.48290000      -0.07150000      -0.03070000
C       -3.38620000      -1.06610000       0.04470000
C       -2.73870000      -2.41070000       0.08310000
C       -1.94030000      -2.77110000      -1.17360000
C       -1.25920000      -2.13640000       0.02300000
O       -0.34090000      -2.86620000       0.76420000
H        0.89780000       1.53920000       0.07400000
H       -2.68320000       0.98650000      -0.11430000
H       -4.46200000      -0.93280000       0.03380000
H       -3.14850000      -3.21360000       0.68390000
H       -1.71390000      -3.82320000      -1.31060000
H       -2.11310000      -2.20010000      -2.07960000
H        0.50980000      -2.42420000       0.64830000
