18
Properties=species:S:1:pos:R:3 gdb_44544=T pbc="F F F"
O        0.01750000       0.21230000       0.61710000
C       -0.00900000       1.30070000       0.10970000
C       -1.27770000       2.11070000      -0.21850000
C       -0.77940000       3.40400000      -0.86070000
C       -0.71270000       4.70530000      -0.05180000
C        0.08020000       4.50600000       1.21590000
C        0.80210000       4.58990000      -0.10350000
N        0.73570000       3.36130000      -0.90030000
C        1.22390000       2.11510000      -0.32470000
H       -1.91260000       1.51250000      -0.87880000
H       -1.83940000       2.27310000       0.70670000
H       -1.18580000       3.55730000      -1.86420000
H       -1.33680000       5.57290000      -0.21990000
H        0.16530000       5.39140000       1.83820000
H        0.02960000       3.57940000       1.78120000
H        1.55650000       5.33960000      -0.31440000
H        1.87140000       2.27350000       0.54640000
H        1.79640000       1.52250000      -1.05040000
