20
Properties=species:S:1:pos:R:3 gdb_113493=T pbc="F F F"
O       -0.02800000       1.23210000      -0.93150000
C        0.03220000       0.26590000       0.10400000
C       -1.30500000      -0.41460000       0.28570000
N       -1.69980000      -1.27410000      -0.85350000
C       -1.47570000      -1.87600000       0.47580000
C       -0.32220000      -2.88620000       0.58670000
C       -0.99130000      -4.10320000       1.17530000
C       -2.24910000      -3.86620000       1.54370000
C       -2.66560000      -2.44280000       1.27010000
H       -0.36360000       0.76070000      -1.70380000
H        0.80890000      -0.48620000      -0.09820000
H        0.31710000       0.80340000       1.01480000
H       -2.08000000       0.22530000       0.70690000
H       -2.69720000      -1.18270000      -1.03250000
H        0.12510000      -3.07150000      -0.39570000
H        0.48520000      -2.52570000       1.23930000
H       -0.47400000      -5.04900000       1.29150000
H       -2.91430000      -4.58640000       2.00640000
H       -2.83530000      -1.88790000       2.20360000
H       -3.60310000      -2.37670000       0.70100000
