21
Properties=species:S:1:pos:R:3 gdb_22320=T pbc="F F F"
C       -0.34300000       1.40230000       0.03880000
N        0.02310000      -0.00420000       0.08630000
C        1.40940000      -0.33620000      -0.21900000
C        0.87820000      -0.52600000       1.16070000
C        1.41620000       0.29130000       2.32890000
C        0.57760000       0.16360000       3.58020000
C       -0.84400000       0.65210000       3.56700000
N        1.17270000      -0.37300000       4.57740000
O        0.35790000      -0.47360000       5.71660000
H        0.45410000       2.09990000       0.34240000
H       -0.62110000       1.64950000      -0.99080000
H       -1.21610000       1.57910000       0.67450000
H        1.57320000      -1.18450000      -0.87890000
H        2.10520000       0.49100000      -0.36480000
H        0.59940000      -1.53900000       1.44950000
H        2.42400000      -0.06000000       2.57040000
H        1.50290000       1.34780000       2.04880000
H       -1.32740000       0.49670000       4.52960000
H       -0.87330000       1.72010000       3.32150000
H       -1.41600000       0.13210000       2.79070000
H        0.95430000      -0.88600000       6.34960000
