16
Properties=species:S:1:pos:R:3 gdb_68774=T pbc="F F F"
O        0.10030000       1.36370000       0.13760000
C        0.04740000      -0.01810000       0.03710000
C       -0.26330000      -0.84960000       1.25900000
C       -1.24190000      -0.79770000       0.10140000
O       -2.48390000      -0.20310000       0.22990000
C       -1.13430000      -1.88230000      -0.93200000
O       -2.06180000      -2.57570000      -1.30240000
N        0.15320000      -1.88100000      -1.38890000
C        0.92080000      -0.68990000      -1.02660000
H       -0.73100000       1.71450000      -0.20440000
H        0.29370000      -1.75770000       1.46970000
H       -0.57720000      -0.27140000       2.12140000
H       -3.10520000      -0.82680000      -0.17590000
H        0.42510000      -2.49490000      -2.14040000
H        1.04510000      -0.01300000      -1.88130000
H        1.91380000      -0.95440000      -0.64620000
