15
Properties=species:S:1:pos:R:3 gdb_130133=T pbc="F F F"
N        0.03750000       1.38810000      -0.10250000
C       -0.07730000       0.03900000      -0.03590000
C       -1.22430000      -0.70030000       0.02150000
C       -1.13640000      -2.12620000       0.03600000
N       -2.30770000      -2.87550000       0.14890000
N       -0.01010000      -2.78860000       0.00240000
N        1.11480000      -2.01540000      -0.01150000
C        1.22540000      -0.65710000      -0.03930000
O        2.30060000      -0.06000000      -0.05150000
H        0.97850000       1.73350000       0.02770000
H       -0.73490000       1.98330000       0.13970000
H       -2.19990000      -0.22600000       0.06500000
H       -3.08440000      -2.51550000      -0.38790000
H       -2.14710000      -3.85660000      -0.03800000
H        1.97950000      -2.53720000      -0.00910000
