20
Properties=species:S:1:pos:R:3 gdb_116367=T pbc="F F F"
C        0.06760000       1.52370000      -0.16130000
C        0.00720000       0.00910000       0.04250000
C       -1.40760000      -0.54880000       0.03090000
O       -1.34160000      -1.93090000       0.15820000
C       -2.54080000      -2.60140000      -0.19720000
C       -3.60380000      -2.51820000       0.89320000
N       -4.12370000      -1.20900000       1.24210000
C       -3.43040000      -0.16180000       1.34260000
O       -2.11410000       0.09610000       1.09950000
H        1.10460000       1.87100000      -0.16080000
H       -0.37940000       1.81510000      -1.11850000
H       -0.46960000       2.04670000       0.63320000
H        0.56120000      -0.51090000      -0.74540000
H        0.46420000      -0.27350000       0.99700000
H       -1.93830000      -0.28930000      -0.90200000
H       -2.93170000      -2.19350000      -1.14260000
H       -2.27070000      -3.64910000      -0.36230000
H       -4.45010000      -3.14710000       0.59040000
H       -3.19250000      -2.96800000       1.80790000
H       -3.89660000       0.74120000       1.73840000
