17
Properties=species:S:1:pos:R:3 gdb_95490=T pbc="F F F"
C       -0.42470000       1.29500000      -0.02270000
C        0.03580000      -0.14620000      -0.09440000
O        1.08820000      -0.24230000      -1.01130000
C        1.16820000      -1.47310000      -1.69530000
C        1.16370000      -2.69530000      -0.83470000
C        1.03520000      -2.79100000       0.49120000
C        0.90690000      -1.73750000       1.53400000
O        1.17920000      -1.98180000       2.68180000
O        0.46790000      -0.49080000       1.22280000
H        0.42380000       1.93280000       0.23620000
H       -0.82140000       1.60530000      -0.99200000
H       -1.19880000       1.40670000       0.73920000
H       -0.78350000      -0.82000000      -0.38490000
H        0.35200000      -1.56340000      -2.43470000
H        2.10010000      -1.43670000      -2.27290000
H        1.28630000      -3.62000000      -1.39720000
H        1.09510000      -3.77200000       0.95080000
