20
Properties=species:S:1:pos:R:3 gdb_116768=T pbc="F F F"
C       -0.06190000       1.39590000      -0.03840000
O       -0.06630000      -0.02690000      -0.03960000
C        0.65590000      -0.60990000      -1.01510000
N        0.71160000      -1.86300000      -1.11190000
C        1.51590000      -2.41470000      -2.18590000
C        2.55550000      -3.39840000      -1.63060000
C        1.92190000      -4.59960000      -0.90490000
C        3.49410000      -3.88960000      -2.71150000
O        3.44240000      -3.57790000      -3.87480000
H        0.95170000       1.79510000       0.08890000
H       -0.49630000       1.79970000      -0.96090000
H       -0.67520000       1.70380000       0.80910000
H        1.16740000       0.09480000      -1.69040000
H        0.85760000      -2.95970000      -2.87430000
H        2.02670000      -1.64350000      -2.78370000
H        3.18820000      -2.86860000      -0.90020000
H        1.30050000      -5.18470000      -1.59150000
H        2.68680000      -5.26330000      -0.48910000
H        1.28630000      -4.24230000      -0.09310000
H        4.27250000      -4.60090000      -2.34660000
