18
Properties=species:S:1:pos:R:3 gdb_93602=T pbc="F F F"
C       -0.00760000       1.53170000       0.03730000
C        0.03100000       0.04320000      -0.02180000
C        0.00170000      -0.74720000      -1.10800000
C        0.04050000      -2.22490000      -0.75890000
C        0.45010000      -2.20410000       0.72980000
C        0.07770000      -0.80160000       1.24290000
O        1.04540000      -0.36870000       2.19000000
C       -0.09270000      -0.28580000      -2.44920000
N       -0.16820000       0.07210000      -3.54910000
H        0.86400000       1.90840000       0.58500000
H       -0.01720000       1.98080000      -0.95790000
H       -0.89830000       1.87720000       0.57920000
H       -0.94780000      -2.67820000      -0.90570000
H        0.73850000      -2.78430000      -1.38850000
H       -0.00630000      -3.00470000       1.31510000
H        1.53630000      -2.29660000       0.82410000
H       -0.92320000      -0.80090000       1.70760000
H        0.66430000       0.33800000       2.71940000
