25
Properties=species:S:1:pos:R:3 gdb_110970=T pbc="F F F"
C        0.15840000       1.47720000       0.14290000
C        0.11370000      -0.04510000       0.32850000
C       -1.29650000      -0.60550000       0.16860000
C       -1.98200000      -0.76380000      -1.22850000
C       -1.07190000      -1.99850000      -1.47810000
C       -1.56960000      -2.14360000      -0.00460000
C       -1.24120000      -3.24640000       0.96850000
C       -2.98740000      -1.76050000      -0.56520000
C       -4.13350000      -1.31060000       0.33060000
H        1.16730000       1.86920000       0.30570000
H       -0.15120000       1.76140000      -0.86850000
H       -0.51260000       1.98300000       0.84640000
H        0.82120000      -0.51210000      -0.36400000
H        0.47150000      -0.29440000       1.33680000
H       -1.93350000      -0.12790000       0.91950000
H       -2.22280000       0.02750000      -1.94120000
H       -1.44910000      -2.74200000      -2.18710000
H       -0.00790000      -1.82180000      -1.63780000
H       -0.16850000      -3.27410000       1.19090000
H       -1.77390000      -3.11030000       1.91670000
H       -1.52230000      -4.22580000       0.56490000
H       -3.36530000      -2.50590000      -1.27640000
H       -3.85300000      -0.55780000       1.07110000
H       -4.94360000      -0.88860000      -0.27490000
H       -4.54960000      -2.16690000       0.87370000
