12
Properties=species:S:1:pos:R:3 gdb_25350=T pbc="F F F"
O       -0.90200000       1.18610000       0.13920000
C        0.22370000       0.83140000      -0.09630000
C        1.40420000       1.76710000      -0.02350000
N        2.55830000       1.23210000      -0.30670000
C        3.69730000       2.01400000      -0.26580000
O        4.81030000       1.66100000      -0.50000000
O        3.52490000       3.39170000       0.09340000
C        2.32350000       3.88660000       0.37310000
C        1.20480000       3.13120000       0.33640000
H        0.49600000      -0.20180000      -0.38480000
H        2.35940000       4.94150000       0.62620000
H        0.22230000       3.51810000       0.56070000
