19
Properties=species:S:1:pos:R:3 gdb_94760=T pbc="F F F"
C       -0.35120000       1.40940000       0.46400000
N        0.14440000       0.10970000       0.00920000
C       -0.92780000      -0.79940000      -0.43670000
C       -1.32690000      -1.68180000       0.78250000
C       -0.05010000      -1.72630000       1.61670000
C        1.23550000      -2.01500000       0.84390000
C        0.84200000      -0.59040000       1.05330000
C       -0.12270000      -2.02340000       3.01220000
N       -0.17980000      -2.25310000       4.14620000
H        0.49280000       2.02450000       0.78920000
H       -0.83460000       1.92250000      -0.37160000
H       -1.06980000       1.34820000       1.29940000
H       -1.76790000      -0.22670000      -0.83400000
H       -0.55560000      -1.43000000      -1.25010000
H       -2.12710000      -1.22130000       1.36930000
H       -1.67030000      -2.67150000       0.46950000
H        2.07440000      -2.37410000       1.42830000
H        1.14790000      -2.46740000      -0.13750000
H        1.44100000       0.02430000       1.71400000
