19
Properties=species:S:1:pos:R:3 gdb_111159=T pbc="F F F"
C       -0.12610000       0.59820000       0.56450000
O       -0.07040000       0.64600000      -0.85280000
C        0.52950000      -0.36860000      -1.57580000
C        1.91430000      -1.01810000      -1.23020000
N        1.20590000      -1.80610000      -0.13390000
C        0.27980000      -1.90240000      -1.33940000
C        1.51960000      -2.12700000      -2.22120000
N        1.74390000      -2.24410000      -3.64330000
C        2.18130000      -3.33810000      -2.72170000
H       -0.68700000      -0.26880000       0.92810000
H        0.87030000       0.57090000       1.01720000
H       -0.63840000       1.51680000       0.86460000
H        0.44240000      -0.06530000      -2.62080000
H        2.88370000      -0.54500000      -1.07460000
H        1.68340000      -2.70530000      -0.01360000
H       -0.65870000      -2.45860000      -1.30910000
H        0.89090000      -2.51660000      -4.12740000
H        3.25890000      -3.45780000      -2.64930000
H        1.62220000      -4.27090000      -2.72950000
