17
Properties=species:S:1:pos:R:3 gdb_8861=T pbc="F F F"
C       -0.03920000       1.59850000      -0.05210000
C        0.04190000       0.06890000      -0.02700000
N        0.69150000      -0.49870000      -1.20780000
C        2.13820000      -0.60780000      -1.19120000
C       -0.06910000      -0.71100000      -2.32000000
N       -1.32580000      -0.44090000      -2.36230000
C        0.61450000      -1.28910000      -3.46950000
N        1.07970000      -1.74380000      -4.42620000
H        0.95390000       2.05300000      -0.12660000
H       -0.64240000       1.93030000      -0.90010000
H       -0.50730000       1.96300000       0.86740000
H        0.60790000      -0.27270000       0.84650000
H       -0.96350000      -0.35370000       0.02970000
H        2.49630000      -1.07830000      -2.10730000
H        2.61600000       0.37670000      -1.10320000
H        2.45880000      -1.22040000      -0.34090000
H       -1.72800000      -0.71790000      -3.25340000
