20
Properties=species:S:1:pos:R:3 gdb_116057=T pbc="F F F"
C        0.01620000       1.44820000      -0.09230000
O        0.10470000       0.04370000       0.01070000
C        0.65330000      -0.60360000      -1.12920000
C        1.29760000      -1.89970000      -0.65900000
C        2.11170000      -2.61220000      -1.74440000
N        1.44260000      -3.10270000      -2.93760000
C        0.57320000      -2.48800000      -3.60870000
O       -0.06290000      -1.29380000      -3.42970000
C       -0.47550000      -0.86660000      -2.13140000
H        1.00600000       1.90470000      -0.24520000
H       -0.64240000       1.77630000      -0.90980000
H       -0.39840000       1.81230000       0.85080000
H        1.41310000       0.03970000      -1.60360000
H        1.96500000      -1.67100000       0.17900000
H        0.51670000      -2.56640000      -0.27280000
H        2.91790000      -1.94110000      -2.07850000
H        2.61160000      -3.47160000      -1.28570000
H        0.24890000      -2.91180000      -4.56060000
H       -1.16100000      -1.60900000      -1.70190000
H       -1.03850000       0.05150000      -2.31350000
