21
Properties=species:S:1:pos:R:3 gdb_39722=T pbc="F F F"
C       -0.00750000       1.50660000       0.01780000
C        1.30920000       0.75140000       0.00030000
C        0.00700000       0.00660000       0.00430000
C       -0.47680000      -0.86320000       1.13980000
C       -1.74570000      -1.53850000       0.64690000
C       -1.98790000      -1.03470000      -0.77460000
C       -0.49880000      -0.84830000      -1.16120000
C        0.09960000      -2.23210000      -0.80230000
C       -0.42900000      -2.29370000       0.62940000
H       -0.29270000       2.01300000       0.93450000
H       -0.30390000       2.02880000      -0.88670000
H        1.89140000       0.76970000      -0.91590000
H        1.90850000       0.75050000       0.90530000
H       -0.31810000      -0.61050000       2.18030000
H       -2.54940000      -1.80580000       1.32030000
H       -2.50010000      -1.76780000      -1.40700000
H       -2.54660000      -0.09370000      -0.80390000
H       -0.29550000      -0.47070000      -2.16320000
H       -0.28730000      -3.03710000      -1.43640000
H        1.19310000      -2.23880000      -0.85360000
H       -0.24050000      -3.13000000       1.28970000
