18
Properties=species:S:1:pos:R:3 gdb_125083=T pbc="F F F"
C        0.33640000       1.48800000      -0.01850000
C        0.11660000       0.00520000      -0.02900000
C       -0.03020000      -0.83850000      -1.12120000
N       -0.22380000      -2.08630000      -0.60340000
N       -0.20850000      -2.12070000       0.73870000
C       -0.00180000      -0.85500000       1.08860000
C       -0.04420000      -0.61150000      -2.58270000
C        0.95870000       0.27370000      -3.22850000
N        1.03270000      -1.17970000      -3.43520000
H        1.38910000       1.74900000       0.14680000
H        0.02930000       1.94520000      -0.96240000
H       -0.23920000       1.96330000       0.78210000
H       -0.37120000      -2.93980000      -1.11650000
H        0.05210000      -0.59160000       2.13570000
H       -1.02070000      -0.68870000      -3.05840000
H        0.67710000       0.84780000      -4.10620000
H        1.70280000       0.74550000      -2.59430000
H        1.75950000      -1.56010000      -2.83210000
