19
Properties=species:S:1:pos:R:3 gdb_79934=T pbc="F F F"
C       -0.06780000       1.59000000       0.06230000
C        0.08970000       0.08480000       0.03190000
C        1.37450000      -0.66590000      -0.28470000
C        2.62490000       0.14500000      -0.11440000
C        2.84460000       0.35290000       1.18370000
C        3.04190000       1.45900000       2.19250000
O        1.73670000       1.10510000       2.74550000
C        1.77540000      -0.21540000       2.06480000
C        0.72190000      -0.75080000       1.12070000
H        0.80260000       2.09460000       0.47830000
H       -0.24380000       1.97550000      -0.94840000
H       -0.92930000       1.86490000       0.67950000
H       -0.78210000      -0.41420000      -0.38810000
H        1.32540000      -1.49480000      -0.98350000
H        3.11710000       0.64180000      -0.94310000
H        3.83860000       1.30050000       2.93150000
H        3.07830000       2.48920000       1.82420000
H        2.06970000      -0.97060000       2.80520000
H        0.19900000      -1.65310000       1.41510000
