19
Properties=species:S:1:pos:R:3 gdb_68687=T pbc="F F F"
C        0.04850000       1.50430000       0.09690000
C       -0.02190000      -0.00220000      -0.03460000
C        0.67910000      -0.63260000      -1.25600000
C        0.13580000      -2.06150000      -1.10040000
O        0.80210000      -2.64980000       0.03460000
C        0.53080000      -1.95780000       1.23660000
O        0.63990000      -0.55270000       1.13410000
C       -1.33550000      -1.78660000      -0.78920000
C       -1.42330000      -0.60940000      -0.16880000
H        1.08930000       1.83100000       0.17370000
H       -0.40610000       1.98410000      -0.77510000
H       -0.47970000       1.83710000       0.99560000
H        0.34170000      -0.17490000      -2.19020000
H        1.76720000      -0.58580000      -1.17990000
H        0.32070000      -2.73830000      -1.93530000
H       -0.47150000      -2.22670000       1.60080000
H        1.28450000      -2.27890000       1.95920000
H       -2.13580000      -2.49700000      -0.95740000
H       -2.30940000      -0.16380000       0.26820000
