20
Properties=species:S:1:pos:R:3 gdb_103449=T pbc="F F F"
C       -0.49200000       1.31930000       0.09870000
C        0.27930000       0.00790000      -0.10220000
C        0.85380000      -0.56200000       1.18500000
C        2.09490000       0.14390000       1.70680000
C       -0.03910000      -1.09640000       2.27430000
O       -1.37210000      -1.45080000       1.91420000
C       -1.24250000      -2.47930000       1.03420000
N       -0.07820000      -2.90560000       0.75100000
C        0.83770000      -2.06440000       1.48460000
H        0.13850000       2.10140000       0.53420000
H       -0.87010000       1.69670000      -0.85640000
H       -1.34750000       1.16790000       0.76390000
H       -0.37350000      -0.72600000      -0.58240000
H        1.11000000       0.16790000      -0.80130000
H        1.90310000       1.20790000       1.88170000
H        2.44000000      -0.28740000       2.65210000
H        2.91580000       0.06190000       0.98570000
H        0.04800000      -0.80640000       3.31450000
H       -2.17720000      -2.86120000       0.64230000
H        1.73860000      -2.54110000       1.85380000
