16
Properties=species:S:1:pos:R:3 gdb_75763=T pbc="F F F"
C        0.23790000       1.32390000      -0.15660000
C       -0.07590000      -0.15100000       0.02190000
O        0.79800000      -0.98220000      -0.85950000
C        1.50350000      -1.46390000       0.21160000
N        2.57820000      -2.10660000       0.28700000
C        0.61040000      -0.84470000       1.26280000
O        1.21630000      -0.04110000       2.22940000
C       -1.47380000      -0.47430000      -0.18460000
C       -2.63790000      -0.73710000      -0.32470000
H        1.29680000       1.51140000       0.03240000
H       -0.01080000       1.63940000      -1.17260000
H       -0.34910000       1.91500000       0.55080000
H        2.96990000      -2.30810000      -0.63450000
H       -0.06910000      -1.56120000       1.73510000
H        2.17070000      -0.13730000       2.13270000
H       -3.66610000      -0.96980000      -0.45650000
