22
Properties=species:S:1:pos:R:3 gdb_87169=T pbc="F F F"
C       -0.19730000       1.48660000       0.01680000
N        0.02330000       0.05100000       0.10380000
C        1.34960000      -0.46030000      -0.22330000
C        0.84190000      -0.51930000       1.18470000
C        1.47590000       0.38490000       2.22930000
C        0.31340000      -1.85550000       1.67730000
C        1.31620000      -2.78010000       2.40880000
O        0.62100000      -2.62290000       3.66220000
C       -0.44840000      -1.89310000       3.02530000
H        0.68620000       2.10610000       0.23380000
H       -0.52930000       1.72470000      -0.99900000
H       -0.99680000       1.77570000       0.70680000
H        1.38000000      -1.35050000      -0.84820000
H        2.13760000       0.26310000      -0.43220000
H        2.03550000       1.20470000       1.77610000
H        0.72020000       0.82070000       2.89160000
H        2.17060000      -0.17870000       2.85860000
H       -0.22220000      -2.32940000       0.85380000
H        1.31270000      -3.82330000       2.06620000
H        2.35530000      -2.43280000       2.46410000
H       -0.64220000      -0.93390000       3.51860000
H       -1.38120000      -2.47140000       3.00280000
