20
Properties=species:S:1:pos:R:3 gdb_97585=T pbc="F F F"
C        0.05080000       1.35890000       0.13810000
C       -0.08260000      -0.16470000      -0.00520000
C       -1.48680000      -0.57740000      -0.03590000
C       -2.64820000      -0.89810000      -0.04010000
C       -4.04100000      -1.34220000      -0.06660000
O       -4.24310000      -2.62020000       0.52270000
N        0.59770000      -0.59560000      -1.23620000
C        2.02150000      -0.89120000      -1.09820000
C        1.02980000      -1.98720000      -1.27700000
H        1.10740000       1.63840000       0.18600000
H       -0.40310000       1.85580000      -0.72230000
H       -0.44500000       1.70300000       1.04900000
H        0.38630000      -0.63760000       0.87950000
H       -4.66840000      -0.64960000       0.50550000
H       -4.40890000      -1.31760000      -1.10490000
H       -3.61700000      -3.22590000       0.11250000
H        2.65260000      -0.57070000      -1.92180000
H        2.47230000      -0.78820000      -0.11180000
H        0.82050000      -2.61280000      -0.41070000
H        0.92060000      -2.48670000      -2.23510000
