18
Properties=species:S:1:pos:R:3 gdb_97824=T pbc="F F F"
C       -0.54270000       1.34970000       0.17030000
C        0.54680000       0.31840000      -0.17540000
C        1.02650000      -0.42480000       0.98440000
C        1.40450000      -1.03490000       1.95190000
C        1.87930000      -1.73590000       3.13140000
C        1.59590000      -1.00740000       4.48890000
N        0.76470000      -1.94230000       5.25950000
C        0.60790000      -2.95810000       4.52110000
O        1.17550000      -3.01010000       3.29320000
H       -0.16690000       2.08820000       0.88360000
H       -0.86790000       1.87590000      -0.73190000
H       -1.41220000       0.86080000       0.61730000
H        0.16120000      -0.39080000      -0.91900000
H        1.39510000       0.82330000      -0.65500000
H        2.93980000      -1.98470000       3.02210000
H        2.52010000      -0.78860000       5.03220000
H        1.06350000      -0.06490000       4.33610000
H        0.03570000      -3.84180000       4.78190000
