20
Properties=species:S:1:pos:R:3 gdb_60553=T pbc="F F F"
C        0.06260000       1.51490000       0.00880000
C       -0.02610000       0.00840000      -0.02780000
C        1.12610000      -0.78190000      -0.48140000
O        0.81750000      -0.67670000       0.92270000
C       -1.42420000      -0.63190000      -0.14080000
O       -1.34730000      -1.99860000       0.21530000
C       -2.47810000       0.10290000       0.68070000
C       -3.62570000      -0.63360000       1.25400000
N       -2.56730000      -0.09480000       2.13430000
H        1.10730000       1.83370000       0.02980000
H       -0.41350000       1.95170000      -0.87590000
H       -0.43650000       1.91230000       0.89660000
H        0.97010000      -1.76870000      -0.91080000
H        2.03790000      -0.27170000      -0.78530000
H       -1.73020000      -0.58200000      -1.19610000
H       -0.59750000      -2.06050000       0.82820000
H       -2.63930000       1.13350000       0.37110000
H       -4.59040000      -0.14330000       1.34700000
H       -3.65460000      -1.70610000       1.09400000
H       -1.95260000      -0.86310000       2.39720000
