15
Properties=species:S:1:pos:R:3 gdb_125809=T pbc="F F F"
C       -0.03200000       1.46320000       0.06680000
C       -0.02000000      -0.03450000       0.00800000
N       -0.01970000      -0.57090000      -1.17470000
O       -0.00050000      -1.94100000      -1.25450000
C        0.00440000      -2.71030000      -0.14690000
C       -0.00170000      -2.22420000       1.11970000
N       -0.05210000      -2.96870000       2.27900000
C        0.00120000      -0.77840000       1.27450000
O        0.03030000      -0.23050000       2.37450000
H        0.84160000       1.82250000       0.61930000
H       -0.03470000       1.88390000      -0.93920000
H       -0.91220000       1.80950000       0.61730000
H        0.01270000      -3.76110000      -0.41280000
H        0.37310000      -3.88260000       2.26630000
H        0.18500000      -2.40800000       3.08820000
