25
Properties=species:S:1:pos:R:3 gdb_60133=T pbc="F F F"
C        0.07920000       1.57560000      -0.07900000
C       -0.07800000       0.06490000       0.14690000
C        0.63860000      -0.36250000       1.43490000
C       -1.55510000      -0.38130000       0.18070000
C       -2.32700000      -0.12600000      -1.10870000
C       -2.04980000      -0.92670000      -2.42920000
C       -2.79200000      -2.14290000      -1.80190000
C       -3.65040000      -0.89360000      -1.44340000
C       -3.44390000      -0.43670000      -2.91630000
H        1.13610000       1.86250000      -0.07680000
H       -0.34720000       1.89640000      -1.03360000
H       -0.41880000       2.14320000       0.71690000
H        0.40480000      -0.45340000      -0.69410000
H        0.19120000       0.12320000       2.31070000
H        0.57530000      -1.44510000       1.58820000
H        1.69850000      -0.08800000       1.41030000
H       -1.58670000      -1.44220000       0.45080000
H       -2.06410000       0.14990000       0.99870000
H       -2.41650000       0.95240000      -1.28300000
H       -1.12530000      -0.94750000      -3.00940000
H       -3.24090000      -2.84720000      -2.50820000
H       -2.30100000      -2.67710000      -0.98760000
H       -4.58190000      -0.87460000      -0.87400000
H       -3.54770000       0.63310000      -3.11970000
H       -3.93010000      -1.04140000      -3.68660000
