17
Properties=species:S:1:pos:R:3 gdb_36614=T pbc="F F F"
C        0.05650000      -1.20160000      -0.05290000
C        0.06640000      -0.00240000      -0.11080000
C        0.04710000       1.44990000      -0.19260000
O        1.28590000       1.97440000       0.29120000
C        1.37930000       3.34030000       0.16940000
C        1.60080000       4.05740000      -1.14950000
C        2.59410000       4.20080000      -0.02450000
O        2.14400000       5.17400000       0.92140000
C        0.98780000       4.35320000       1.24890000
H        0.05360000      -2.26240000       0.00060000
H       -0.11250000       1.76990000      -1.23300000
H       -0.79220000       1.84560000       0.39960000
H        1.92680000       3.39800000      -1.94870000
H        0.99590000       4.90810000      -1.45240000
H        3.65450000       3.98940000      -0.08610000
H        0.04380000       4.89940000       1.14170000
H        1.07920000       3.94250000       2.26050000
