18
Properties=species:S:1:pos:R:3 gdb_92850=T pbc="F F F"
C       -0.08970000       1.57600000      -0.01660000
C        0.00320000       0.04490000       0.02230000
C        0.90840000      -0.56260000      -1.13030000
N        1.99670000      -1.36410000      -0.53330000
C        1.82460000      -1.28340000       0.72300000
O        2.54290000      -1.82440000       1.72850000
C        1.91560000      -1.41430000       2.96400000
C        0.72930000      -0.55870000       2.56200000
C        0.70410000      -0.50190000       1.23110000
H        0.90520000       2.02760000       0.05230000
H       -0.54870000       1.91020000      -0.95240000
H       -0.69340000       1.95980000       0.81180000
H       -1.00910000      -0.36970000      -0.04760000
H        0.32220000      -1.19370000      -1.80790000
H        1.34260000       0.23690000      -1.74350000
H        1.62710000      -2.31420000       3.52290000
H        2.65530000      -0.86880000       3.56430000
H        0.06590000      -0.10910000       3.28910000
