18
Properties=species:S:1:pos:R:3 gdb_52892=T pbc="F F F"
C        0.08170000       1.49620000       0.05520000
C        0.04290000       0.04200000       0.02650000
C        0.01750000      -1.16160000       0.01320000
C       -0.00390000      -2.60330000      -0.03750000
N       -0.51980000      -3.30130000       1.18470000
C       -1.31540000      -3.36400000      -0.03720000
C       -2.64770000      -2.66100000      -0.03100000
C        1.10160000      -3.21820000      -0.73320000
C        2.02380000      -3.74710000      -1.29550000
H        1.07910000       1.86850000      -0.20320000
H       -0.63000000       1.93020000      -0.65570000
H       -0.16720000       1.87810000       1.05140000
H        0.01520000      -4.15790000       1.30980000
H       -1.28050000      -4.29270000      -0.60450000
H       -2.57990000      -1.71250000       0.50490000
H       -2.98470000      -2.46370000      -1.05370000
H       -3.40000000      -3.28520000       0.46270000
H        2.84000000      -4.20370000      -1.79840000
