20
Properties=species:S:1:pos:R:3 gdb_77497=T pbc="F F F"
C        0.01450000       1.47760000       0.00840000
C       -0.02480000      -0.02020000       0.07300000
N        0.64650000      -0.90180000      -0.97620000
C        0.02610000      -1.89040000       0.01290000
C        0.14860000      -3.37590000      -0.14480000
C        0.63960000      -0.97030000       1.11960000
O        2.02340000      -0.93600000       1.26020000
C       -1.23710000      -1.00290000       0.04670000
O       -2.07950000      -1.15470000       1.16170000
H        1.04710000       1.83410000       0.07800000
H       -0.41680000       1.85460000      -0.92570000
H       -0.54850000       1.91040000       0.84250000
H        0.10680000      -0.89020000      -1.84860000
H        1.19850000      -3.67860000      -0.08430000
H       -0.40280000      -3.88460000       0.65210000
H       -0.25370000      -3.71370000      -1.10610000
H        0.18070000      -1.01590000       2.10480000
H        2.36380000      -0.89940000       0.35370000
H       -1.79740000      -0.98880000      -0.90090000
H       -2.73430000      -0.44960000       1.14930000
