19
Properties=species:S:1:pos:R:3 gdb_102982=T pbc="F F F"
C       -0.18840000       0.95410000      -1.80290000
C        0.01420000      -0.22530000      -0.87510000
C        1.33270000      -0.60050000      -0.26820000
N        2.52600000       0.15330000      -0.49740000
C        0.19110000      -0.06670000       0.64160000
C        0.38870000       1.28560000       1.31420000
O        1.34900000       1.22020000       2.35630000
C       -0.46280000      -1.02630000       1.48780000
N       -0.96880000      -1.78420000       2.20380000
H        0.43360000       1.81800000      -1.55610000
H        0.04770000       0.66230000      -2.83150000
H       -1.23070000       1.28670000      -1.78140000
H       -0.60560000      -1.07680000      -1.14070000
H        1.51210000      -1.66710000      -0.16150000
H        2.35920000       1.00370000      -1.01940000
H        2.97230000       0.40450000       0.37880000
H        0.78190000       2.00820000       0.59830000
H       -0.57480000       1.66870000       1.67790000
H        1.01540000       0.61700000       3.03030000
