21
Properties=species:S:1:pos:R:3 gdb_113350=T pbc="F F F"
C        0.36930000       1.51020000       0.32260000
C       -0.20050000       0.15120000      -0.10610000
C        0.55320000      -0.46830000      -1.27190000
C        1.93230000      -1.09390000      -1.06890000
C        0.78470000      -1.97950000      -1.41210000
C        0.21930000      -2.97410000      -0.42990000
O        0.95260000      -4.18060000      -0.59270000
C        0.36090000       0.19830000      -2.58730000
O       -0.37840000       1.12980000      -2.79340000
H        1.41670000       1.42040000       0.63020000
H        0.31310000       2.22980000      -0.49720000
H       -0.19480000       1.91510000       1.16830000
H       -0.18970000      -0.53090000       0.74920000
H       -1.24860000       0.27550000      -0.39980000
H        2.70030000      -0.91280000      -1.81370000
H        2.29510000      -1.10820000      -0.04630000
H        0.76080000      -2.35400000      -2.43290000
H        0.30760000      -2.59530000       0.59860000
H       -0.85200000      -3.13070000      -0.63280000
H        0.55290000      -4.85060000      -0.03000000
H        0.96450000      -0.24690000      -3.41430000
