24
Properties=species:S:1:pos:R:3 gdb_117490=T pbc="F F F"
C        0.10500000       1.46130000      -0.10850000
C        0.07580000      -0.05300000      -0.00640000
O        0.63490000      -0.57580000      -1.21630000
C        0.70680000      -1.92560000      -1.33880000
N        0.28620000      -2.66420000      -0.39980000
C        0.32440000      -4.10680000      -0.44580000
C        1.32550000      -2.27710000      -2.68350000
C        0.44930000      -1.75860000      -3.83780000
C        2.76160000      -1.73190000      -2.78090000
H        1.12970000       1.82570000      -0.22730000
H       -0.48230000       1.80720000      -0.96420000
H       -0.31510000       1.90500000       0.79920000
H        0.65680000      -0.41750000       0.84770000
H       -0.94320000      -0.43590000       0.11630000
H       -0.69270000      -4.49920000      -0.32490000
H        0.74730000      -4.55020000      -1.35780000
H        0.90470000      -4.48020000       0.40670000
H        1.37120000      -3.36670000      -2.75590000
H        0.88450000      -2.04320000      -4.80120000
H       -0.56210000      -2.17400000      -3.78740000
H        0.37000000      -0.66920000      -3.80350000
H        3.39300000      -2.12840000      -1.97960000
H        3.21080000      -2.01630000      -3.73790000
H        2.76670000      -0.64150000      -2.70790000
