16
Properties=species:S:1:pos:R:3 gdb_11523=T pbc="F F F"
O        0.20250000       1.49210000      -0.10250000
C        0.12130000       0.08040000      -0.04770000
C        0.77690000      -0.61770000      -1.25290000
N        0.03600000      -0.31020000      -2.46060000
C        0.46130000       0.86020000      -3.22110000
C        0.73970000      -0.51130000      -3.72520000
C        0.69230000      -0.43730000       1.21260000
N        1.17630000      -0.82520000       2.18760000
H        1.12430000       1.74760000       0.01940000
H       -0.94850000      -0.15130000      -0.06760000
H        1.84190000      -0.32070000      -1.30250000
H        0.74880000      -1.70100000      -1.08920000
H       -0.33770000       1.45830000      -3.64760000
H        1.30540000       1.43390000      -2.84420000
H        1.77150000      -0.85700000      -3.68500000
H        0.14690000      -0.94090000      -4.52710000
