12
Properties=species:S:1:pos:R:3 gdb_2732=T pbc="F F F"
N        0.00510000       1.23510000      -0.23450000
C        0.00390000       0.00800000      -0.00090000
O        1.02620000      -0.86230000       0.30910000
C        0.10640000      -1.98450000       0.45340000
C       -1.08190000      -1.07290000       0.03740000
C       -2.17960000      -0.90830000       0.96470000
C       -3.08500000      -0.78900000       1.74490000
H        0.94430000       1.63100000      -0.17100000
H        0.35770000      -2.79370000      -0.23510000
H        0.07590000      -2.34030000       1.48460000
H       -1.44980000      -1.29600000      -0.96890000
H       -3.88680000      -0.66820000       2.43090000
