21
Properties=species:S:1:pos:R:3 gdb_63169=T pbc="F F F"
C       -0.03430000       1.53700000       0.01460000
C        0.01950000       0.02320000       0.05640000
C       -1.21130000      -0.66050000      -0.51420000
C        1.34550000      -0.69390000      -0.18690000
O        2.51350000       0.08330000      -0.16400000
C        2.96110000       0.17950000       1.19560000
C        1.70160000       0.07300000       2.07990000
C        0.72500000      -0.70750000       1.18820000
O        0.07160000      -1.81380000       1.73700000
H        0.93930000       1.99000000       0.20970000
H       -0.35190000       1.87110000      -0.97920000
H       -0.75550000       1.92880000       0.74090000
H       -1.36440000      -0.35460000      -1.55500000
H       -1.12680000      -1.74800000      -0.47780000
H       -2.10740000      -0.38500000       0.05280000
H        1.37970000      -1.56700000      -0.83420000
H        3.65900000      -0.64290000       1.41680000
H        3.50160000       1.12420000       1.29950000
H        1.88810000      -0.48880000       2.99900000
H        1.31700000       1.05580000       2.36680000
H        0.72690000      -2.50260000       1.89600000
