16
Properties=species:S:1:pos:R:3 gdb_4932=T pbc="F F F"
C        0.00580000       1.41120000      -0.01190000
O        0.15010000       0.00590000      -0.10230000
C        0.66600000      -0.58630000       0.99810000
C        1.07160000      -0.04570000       2.18300000
O        1.52750000      -1.04700000       3.00330000
C        1.40650000      -2.22060000       2.32850000
C        1.84710000      -3.44950000       3.03980000
C        0.88340000      -2.00050000       1.09240000
H        0.97710000       1.89900000       0.14850000
H       -0.41790000       1.74720000      -0.95940000
H       -0.66900000       1.68730000       0.80990000
H        1.10680000       0.95040000       2.58530000
H        2.90720000      -3.39610000       3.31270000
H        1.27920000      -3.60220000       3.96460000
H        1.70150000      -4.32260000       2.40020000
H        0.67200000      -2.73410000       0.33110000
