23
Properties=species:S:1:pos:R:3 gdb_87965=T pbc="F F F"
C        0.11640000       1.61270000      -0.22410000
C        0.11050000       0.10700000      -0.07460000
C        1.40700000      -0.66680000      -0.00010000
C        0.51200000      -0.57020000       1.21170000
C        0.95690000       0.20250000       2.46490000
O        0.47310000      -0.53090000       3.58210000
C        0.30640000      -1.89130000       3.18350000
C       -0.59270000      -2.58770000       4.18850000
C       -0.23380000      -1.78830000       1.75040000
H        0.96860000       2.06510000       0.29340000
H        0.18450000       1.89960000      -1.27910000
H       -0.79580000       2.06240000       0.18420000
H       -0.69510000      -0.38630000      -0.61520000
H        1.48130000      -1.61880000      -0.51680000
H        2.33080000      -0.09370000       0.00990000
H        2.05430000       0.28920000       2.50550000
H        0.53660000       1.21210000       2.52780000
H        1.29200000      -2.39040000       3.16180000
H       -1.57340000      -2.10300000       4.22210000
H       -0.73030000      -3.63890000       3.91670000
H       -0.15470000      -2.54600000       5.18970000
H       -1.31540000      -1.60580000       1.78160000
H       -0.05830000      -2.69340000       1.16210000
