14
Properties=species:S:1:pos:R:3 gdb_128562=T pbc="F F F"
C        0.00190000       1.43590000      -0.02110000
O        0.01110000       0.00210000      -0.01780000
C        0.58850000      -0.64750000      -1.02930000
C        0.62850000      -1.99340000      -1.08140000
C        1.26840000      -2.62870000      -2.20370000
N        1.36750000      -3.88170000      -2.36150000
O        1.79930000      -1.74710000      -3.15430000
N        1.71580000      -0.34160000      -3.02610000
N        1.15310000       0.14320000      -2.03820000
H        1.01790000       1.83830000      -0.01320000
H       -0.53230000       1.82640000      -0.89090000
H       -0.51890000       1.71430000       0.89500000
H        0.19700000      -2.61590000      -0.31010000
H        1.85880000      -4.10640000      -3.22680000
