16
Properties=species:S:1:pos:R:3 gdb_14485=T pbc="F F F"
C       -0.03610000       1.50040000      -0.01220000
C        0.01020000       0.00740000       0.01660000
C       -0.06840000      -1.01320000      -1.11250000
C        0.79240000      -2.01220000      -0.28860000
C        0.88490000      -0.98410000       0.85130000
C       -0.24230000      -2.00890000       0.81010000
O       -0.55300000      -3.04140000       1.65370000
C       -1.12890000      -1.00690000      -0.01420000
H        0.93020000       1.92760000      -0.30530000
H       -0.78540000       1.84840000      -0.73190000
H       -0.30090000       1.91400000       0.96840000
H       -0.18910000      -0.86340000      -2.17820000
H        1.49970000      -2.78150000      -0.56670000
H        1.68010000      -0.83950000       1.57130000
H       -0.81160000      -2.67190000       2.50620000
H       -2.19620000      -0.84110000      -0.09120000
