17
Properties=species:S:1:pos:R:3 gdb_4909=T pbc="F F F"
C        0.03880000       1.55160000      -0.15510000
C       -0.02170000       0.03810000       0.11280000
C       -1.41410000      -0.52210000       0.07440000
C       -2.12230000      -1.01790000       1.13920000
N       -3.36930000      -1.41330000       0.68060000
C       -3.44650000      -1.17280000      -0.65820000
O       -4.60280000      -1.50480000      -1.28980000
C       -2.26270000      -0.62050000      -1.08150000
H        1.07070000       1.91730000      -0.12380000
H       -0.37470000       1.79460000      -1.13910000
H       -0.54280000       2.10160000       0.59140000
H        0.60870000      -0.47770000      -0.62390000
H        0.42220000      -0.17380000       1.09270000
H       -1.85380000      -1.12630000       2.17740000
H       -4.10710000      -1.82520000       1.22380000
H       -4.51200000      -1.27610000      -2.21940000
H       -2.02210000      -0.32400000      -2.09150000
