22
Properties=species:S:1:pos:R:3 gdb_61637=T pbc="F F F"
C        0.17420000       1.69470000      -0.01710000
C       -0.05620000       0.17390000       0.04090000
C        0.59500000      -0.59790000      -1.11100000
N       -0.02330000      -0.22950000      -2.38120000
C        0.72310000       0.63320000      -3.29580000
C        0.49960000      -0.80170000      -3.62570000
C        1.64370000      -1.79180000      -3.65860000
C        0.38150000      -0.35960000       1.38910000
O        1.12800000      -1.28970000       1.56310000
H        1.24400000       1.93130000      -0.01820000
H       -0.27030000       2.11020000      -0.92370000
H       -0.28030000       2.19750000       0.84310000
H       -1.14380000       0.00720000      -0.00760000
H        1.68300000      -0.42760000      -1.08650000
H        0.44300000      -1.66870000      -0.94340000
H        0.15650000       1.42070000      -3.78690000
H        1.73540000       0.91730000      -3.00770000
H       -0.29410000      -1.03090000      -4.33640000
H        2.46530000      -1.50200000      -2.99940000
H        1.30920000      -2.79260000      -3.36320000
H        2.04230000      -1.86530000      -4.67590000
H       -0.05310000       0.19160000       2.25690000
