22
Properties=species:S:1:pos:R:3 gdb_78767=T pbc="F F F"
C       -0.09680000       1.60610000       0.01060000
C        0.10220000       0.09600000       0.03060000
C        1.20320000      -0.58050000      -0.76550000
N        1.35560000      -1.69330000       0.23890000
C        2.44720000      -0.66840000       0.06540000
C        3.78730000      -1.02240000      -0.50230000
C        2.15520000      -0.03150000       1.41350000
C        0.74830000      -0.64140000       1.23690000
C       -0.06810000      -1.11080000       2.40640000
H        0.83540000       2.14810000       0.19290000
H       -0.48050000       1.93060000      -0.96290000
H       -0.82370000       1.91800000       0.76900000
H       -0.84460000      -0.40980000      -0.19580000
H        1.22030000      -0.79070000      -1.83050000
H        3.67900000      -1.67880000      -1.37130000
H        4.32810000      -0.12370000      -0.82070000
H        4.40220000      -1.54390000       0.23880000
H        2.70370000      -0.55040000       2.20630000
H        2.26070000       1.05000000       1.54740000
H       -0.41780000      -0.25780000       3.00010000
H       -0.94430000      -1.67480000       2.07070000
H        0.52210000      -1.75990000       3.06130000
