18
Properties=species:S:1:pos:R:3 gdb_7291=T pbc="F F F"
C       -0.01100000       1.51750000      -0.13470000
C       -0.01480000      -0.01780000       0.00860000
C        0.75440000      -0.47680000       1.26800000
C        2.16610000      -0.11830000       1.23390000
C        3.32970000       0.18070000       1.18140000
C       -1.46100000      -0.51630000       0.06480000
C       -2.16770000      -0.70760000      -1.26480000
O       -2.01120000      -0.74320000       1.11870000
H        1.01800000       1.88480000      -0.15920000
H       -0.51070000       1.84110000      -1.05220000
H       -0.52240000       1.98260000       0.71440000
H        0.46630000      -0.44500000      -0.87990000
H        0.27030000      -0.04640000       2.15140000
H        0.65390000      -1.56310000       1.37700000
H        4.35940000       0.43800000       1.15410000
H       -2.02030000       0.15190000      -1.92600000
H       -1.73910000      -1.57780000      -1.77700000
H       -3.23220000      -0.87830000      -1.10060000
