21
Properties=species:S:1:pos:R:3 gdb_74038=T pbc="F F F"
C        0.02340000       1.50950000       0.02590000
C       -0.02610000       0.01610000       0.02600000
C       -1.10050000      -0.78620000      -0.01340000
C       -2.60460000      -0.67020000      -0.06930000
C       -3.09160000      -2.16100000      -0.08590000
C       -1.81660000      -2.98580000      -0.03670000
C       -0.73800000      -2.19440000       0.00220000
C        0.76500000      -2.30940000       0.05920000
C        1.24590000      -0.82100000       0.07470000
H        0.59330000       1.89170000      -0.83210000
H       -0.97720000       1.94900000      -0.01230000
H        0.52720000       1.89390000       0.92340000
H       -3.00640000      -0.12760000       0.79300000
H       -2.94190000      -0.12910000      -0.95970000
H       -3.74990000      -2.37970000       0.76520000
H       -3.68370000      -2.38190000      -0.98370000
H       -1.82780000      -4.06970000      -0.03550000
H        1.09870000      -2.85070000       0.95050000
H        1.16540000      -2.85400000      -0.80190000
H        1.90300000      -0.59600000      -0.77670000
H        1.83790000      -0.59310000       0.97190000
