20
Properties=species:S:1:pos:R:3 gdb_115072=T pbc="F F F"
O        0.04640000       1.37340000      -0.07750000
C        0.03510000      -0.04760000      -0.07390000
C       -1.41550000      -0.51680000       0.01270000
C       -2.24540000      -0.00890000      -1.18850000
C       -3.58880000      -0.67920000      -1.30520000
C       -3.79820000      -1.93380000      -0.90440000
C       -2.70780000      -2.73470000      -0.29550000
N       -1.42940000      -2.82980000      -1.06180000
C       -1.48520000      -2.02440000       0.16720000
H        0.95060000       1.66730000      -0.21900000
H        0.49040000      -0.45630000      -0.98970000
H        0.60410000      -0.44320000       0.78410000
H       -1.84530000      -0.08670000       0.92850000
H       -2.35630000       1.07540000      -1.10820000
H       -1.67560000      -0.18890000      -2.11000000
H       -4.39610000      -0.11270000      -1.76160000
H       -4.77210000      -2.40210000      -1.01240000
H       -3.00830000      -3.62240000       0.25460000
H       -0.98740000      -3.72540000      -0.86850000
H       -0.98830000      -2.41980000       1.05250000
