16
Properties=species:S:1:pos:R:3 gdb_10156=T pbc="F F F"
C       -0.04640000       1.41280000       0.01280000
O       -0.00180000       0.00340000      -0.00120000
C        0.71830000      -0.51600000      -1.09110000
C        0.65350000      -2.04810000      -0.98890000
C       -0.81500000      -2.50390000      -1.02080000
O       -1.32010000      -3.21480000      -0.19950000
C        1.36100000      -2.67470000      -2.09840000
C        1.90400000      -3.18470000      -3.04180000
H        0.96160000       1.84930000       0.08520000
H       -0.53200000       1.81310000      -0.89050000
H       -0.62590000       1.70990000       0.88930000
H        0.28090000      -0.18840000      -2.04940000
H        1.76840000      -0.18580000      -1.07950000
H        1.07040000      -2.36650000      -0.02780000
H       -1.37640000      -2.12300000      -1.90330000
H        2.39910000      -3.64560000      -3.86080000
