15
Properties=species:S:1:pos:R:3 gdb_85724=T pbc="F F F"
O        0.60330000       0.52840000      -1.03950000
C        0.07130000      -0.30980000      -0.07500000
C        0.14520000       0.05990000       1.43000000
C       -1.25620000      -0.59720000       1.61420000
C       -2.19560000       0.00190000       2.54320000
N       -2.93570000       0.48220000       3.28980000
C       -1.50130000      -0.44720000       0.06670000
C       -2.15730000       0.78810000      -0.32110000
N       -2.59910000       1.80190000      -0.65980000
H        0.18050000       1.39480000      -0.97770000
H        0.49330000      -1.30160000      -0.25740000
H        0.96840000      -0.33960000       2.02240000
H        0.08590000       1.14240000       1.57010000
H       -1.15760000      -1.66090000       1.84580000
H       -1.97500000      -1.29600000      -0.42920000
