23
Properties=species:S:1:pos:R:3 gdb_100087=T pbc="F F F"
C       -0.14290000       1.63650000      -0.13080000
C       -0.10800000       0.10910000      -0.03000000
C       -1.47510000      -0.58470000       0.12140000
C       -1.28100000      -2.10470000       0.14800000
C       -2.23820000      -0.09340000       1.35630000
O       -2.18380000      -0.19720000      -1.10650000
C       -3.43500000      -0.61720000      -1.36620000
C       -3.90150000      -0.05960000      -2.69380000
O       -4.09850000      -1.33140000      -0.65460000
H        0.86200000       2.02670000      -0.31830000
H       -0.78880000       1.95810000      -0.95190000
H       -0.50730000       2.10090000       0.79030000
H        0.37270000      -0.30140000      -0.92560000
H        0.51060000      -0.19500000       0.82270000
H       -0.65680000      -2.37950000       1.00420000
H       -2.23670000      -2.62180000       0.23190000
H       -0.77410000      -2.44080000      -0.76190000
H       -2.47500000       0.97050000       1.27520000
H       -3.16830000      -0.64660000       1.48320000
H       -1.61770000      -0.23600000       2.24700000
H       -4.90090000      -0.43400000      -2.91230000
H       -3.91410000       1.03360000      -2.65690000
H       -3.20930000      -0.34920000      -3.48920000
