17
Properties=species:S:1:pos:R:3 gdb_31994=T pbc="F F F"
O        0.31380000       0.98660000      -0.80170000
C       -0.05990000       0.20720000       0.31920000
C       -1.40540000      -0.41980000       0.13630000
C       -2.14490000      -0.71720000      -0.96550000
C       -3.36240000      -1.30660000      -0.48800000
C       -3.27240000      -1.32560000       0.86880000
C       -4.19380000      -1.81050000       1.94250000
O       -5.11030000      -2.77240000       1.45420000
O       -2.08170000      -0.78640000       1.26480000
H       -0.38260000       1.63720000      -0.94350000
H        0.72220000      -0.55590000       0.41860000
H       -0.05750000       0.78550000       1.25690000
H       -1.84950000      -0.54900000      -1.98880000
H       -4.19970000      -1.65650000      -1.07050000
H       -3.59480000      -2.18680000       2.78700000
H       -4.81030000      -0.99190000       2.33460000
H       -4.59530000      -3.48400000       1.05840000
