23
Properties=species:S:1:pos:R:3 gdb_88195=T pbc="F F F"
C       -0.11390000       1.51980000      -0.12860000
C        0.02630000       0.01950000       0.01630000
C        1.35640000      -0.67320000      -0.18140000
C        0.71600000      -0.63920000       1.18760000
C        1.37110000       0.15840000       2.30530000
C        2.32920000      -0.75120000       3.09340000
C        1.61280000      -2.03500000       3.51970000
O        1.06040000      -2.72190000       2.40960000
C        0.11130000      -1.92730000       1.71620000
H        0.77910000       2.04990000       0.21450000
H       -0.27090000       1.79240000      -1.17810000
H       -0.96720000       1.90090000       0.44380000
H       -0.83490000      -0.53010000      -0.36110000
H        1.38570000      -1.61390000      -0.72180000
H        2.22650000      -0.04330000      -0.34360000
H        1.90640000       1.02910000       1.91540000
H        0.59610000       0.54130000       2.98540000
H        3.18520000      -1.01840000       2.46270000
H        2.71900000      -0.23400000       3.97780000
H        2.30280000      -2.73500000       4.00010000
H        0.81660000      -1.79340000       4.24720000
H       -0.73540000      -1.69050000       2.38670000
H       -0.27060000      -2.54780000       0.89960000
