22
Properties=species:S:1:pos:R:3 gdb_60216=T pbc="F F F"
C        0.02270000       1.61580000      -0.19020000
C        0.03580000       0.08970000      -0.09780000
O        0.80590000      -0.47950000      -1.15810000
C        0.66490000      -0.41160000       1.20460000
C        0.54090000      -1.91840000       1.36720000
C        1.06010000      -2.62600000       2.65110000
C       -0.35800000      -3.16900000       2.80840000
C       -1.33310000      -2.06820000       2.88550000
N       -0.85900000      -2.48130000       1.54890000
H        1.04190000       2.01050000      -0.12530000
H       -0.40800000       1.94390000      -1.14300000
H       -0.57570000       2.05630000       0.61440000
H       -0.99800000      -0.28630000      -0.14510000
H        0.33930000      -0.32100000      -1.98410000
H        1.72990000      -0.14400000       1.19900000
H        0.21110000       0.11650000       2.05070000
H        0.94600000      -2.39170000       0.47110000
H        1.81380000      -3.38730000       2.44300000
H        1.41830000      -1.99310000       3.46990000
H       -0.61900000      -4.19860000       3.03120000
H       -2.37640000      -2.32170000       3.04710000
H       -1.03560000      -1.10960000       3.30430000
