21
Properties=species:S:1:pos:R:3 gdb_95941=T pbc="F F F"
C       -0.75470000       1.09650000       0.08770000
C        0.16940000      -0.11160000      -0.03770000
C        1.30910000       0.03060000      -1.05980000
C        2.24770000      -1.15350000      -0.74970000
C        2.03280000      -1.47120000       0.75900000
C        0.93400000      -0.49700000       1.26380000
O        1.47350000       0.63740000       1.93810000
C        0.00630000      -1.14300000       2.28100000
O       -0.58770000      -2.17220000       2.08520000
H       -0.20880000       1.97180000       0.45130000
H       -1.19680000       1.34630000      -0.88190000
H       -1.57560000       0.90360000       0.78600000
H       -0.42100000      -0.99790000      -0.30510000
H        0.94810000       0.03300000      -2.09220000
H        1.82350000       0.99080000      -0.91000000
H        1.96970000      -2.01990000      -1.35680000
H        3.29190000      -0.92940000      -0.98350000
H        1.69520000      -2.50100000       0.89680000
H        2.93480000      -1.33680000       1.36210000
H        2.12840000       1.05130000       1.36800000
H       -0.08690000      -0.57430000       3.23140000
