16
Properties=species:S:1:pos:R:3 gdb_11445=T pbc="F F F"
O        0.09380000       1.25350000      -0.33020000
C        0.00540000      -0.14580000      -0.11810000
C       -1.45660000      -0.47710000       0.17720000
C       -2.35960000      -0.17820000      -1.03550000
O       -2.41600000      -1.39690000      -1.79870000
C       -2.07470000      -2.46940000      -1.03420000
O       -2.10510000      -3.59090000      -1.44900000
C       -1.67740000      -1.98260000       0.35810000
H        0.98560000       1.46340000      -0.62160000
H        0.34110000      -0.70870000      -1.00420000
H        0.62930000      -0.46380000       0.73160000
H       -1.77070000       0.10740000       1.04540000
H       -3.37760000       0.09220000      -0.73360000
H       -1.95600000       0.60820000      -1.67440000
H       -0.80680000      -2.53720000       0.71490000
H       -2.50480000      -2.19830000       1.04240000
