18
Properties=species:S:1:pos:R:3 gdb_109353=T pbc="F F F"
C        0.24550000       1.41280000       0.18410000
O       -0.01850000       0.02740000      -0.02950000
C        0.46890000      -0.49530000      -1.18050000
N        1.06950000       0.20940000      -2.03970000
C        1.66620000      -0.39560000      -3.21350000
C        0.74470000      -1.32570000      -4.02720000
N        0.47780000      -2.62990000      -3.44790000
C        0.23760000      -2.77810000      -2.21500000
N        0.19290000      -1.85990000      -1.17000000
H        1.32060000       1.61060000       0.17210000
H       -0.22690000       2.02190000      -0.59100000
H       -0.17770000       1.64290000       1.16290000
H        1.99700000       0.41710000      -3.86960000
H        2.56860000      -0.95950000      -2.93690000
H       -0.20550000      -0.80440000      -4.20640000
H        1.19790000      -1.49150000      -5.01160000
H        0.01600000      -3.78250000      -1.84860000
H       -0.16850000      -2.19890000      -0.29060000
