16
Properties=species:S:1:pos:R:3 gdb_44608=T pbc="F F F"
O        0.06770000      -0.04130000      -0.14070000
C       -0.00570000       1.15380000      -0.10230000
C       -1.27970000       2.02050000      -0.14820000
N       -0.86990000       3.33470000      -0.66130000
C       -0.07180000       4.20770000       0.21530000
C        0.35500000       3.72330000       1.58330000
O        1.14590000       2.54960000       1.38110000
C        1.14710000       2.17990000      -0.01070000
C        0.61740000       3.36360000      -0.79010000
H       -2.00650000       1.57550000      -0.83260000
H       -1.74560000       2.07540000       0.84230000
H       -0.24340000       5.26960000       0.06910000
H        0.96120000       4.48800000       2.08520000
H       -0.49450000       3.48510000       2.23850000
H        2.12590000       1.78940000      -0.28660000
H        1.05410000       3.70680000      -1.72000000
