19
Properties=species:S:1:pos:R:3 gdb_8499=T pbc="F F F"
C       -0.05510000       1.42570000      -0.00720000
C        0.08050000      -0.06790000      -0.02800000
C        0.58120000      -0.97140000      -1.16020000
C        0.07930000      -1.92640000      -0.07170000
C       -0.05810000      -3.41910000      -0.12120000
C        0.59490000      -1.02450000       1.09860000
C       -0.80140000      -1.03780000       1.70470000
N       -1.14850000      -1.00270000       0.21950000
H        0.92420000       1.90210000      -0.12550000
H       -0.69900000       1.76150000      -0.82650000
H       -0.49090000       1.77780000       0.93330000
H       -0.00130000      -0.94920000      -2.08710000
H        1.65710000      -0.96740000      -1.35860000
H        0.92060000      -3.89070000      -0.26190000
H       -0.49430000      -3.81460000       0.80180000
H       -0.70240000      -3.71520000      -0.95530000
H        1.58420000      -1.03620000       1.57160000
H       -1.14110000      -1.94570000       2.21310000
H       -1.14000000      -0.15430000       2.25520000
