23
Properties=species:S:1:pos:R:3 gdb_109763=T pbc="F F F"
C       -0.91300000       0.74270000      -2.67200000
C       -0.58450000      -0.52050000      -1.87790000
O        0.55060000      -0.29090000      -1.01680000
C       -1.77470000      -1.02550000      -1.08830000
C       -2.71140000      -2.11510000      -1.58030000
C       -2.59610000      -2.77360000      -2.94130000
C       -1.77330000      -2.39160000      -0.42460000
C       -0.56660000      -3.30740000      -0.51360000
O        0.49370000      -2.87780000       0.31870000
H       -0.02830000       1.10360000      -3.20310000
H       -1.70640000       0.54660000      -3.39980000
H       -1.26340000       1.53970000      -2.00460000
H       -0.22660000      -1.28830000      -2.56840000
H        0.28470000       0.35580000      -0.35240000
H       -2.25460000      -0.23080000      -0.51710000
H       -3.74760000      -1.96560000      -1.28570000
H       -1.56390000      -2.93200000      -3.26010000
H       -3.08600000      -3.75340000      -2.93480000
H       -3.08830000      -2.16590000      -3.70910000
H       -2.23620000      -2.41570000       0.55880000
H       -0.84480000      -4.30910000      -0.16630000
H       -0.23410000      -3.42120000      -1.55630000
H        0.74060000      -1.99510000       0.00140000
