13
Properties=species:S:1:pos:R:3 gdb_21087=T pbc="F F F"
C       -0.02780000       1.45280000       0.00420000
N       -0.00960000      -0.00180000       0.04560000
N       -0.03380000      -0.70240000      -1.10020000
C       -0.00740000      -1.96510000      -0.67270000
N        0.03240000      -2.11450000       0.66530000
C        0.03040000      -0.85880000       1.10450000
C        0.06520000      -0.40980000       2.50680000
O        0.10040000      -1.15100000       3.45590000
H        0.87310000       1.86510000       0.46530000
H       -0.06120000       1.73870000      -1.04600000
H       -0.91010000       1.84430000       0.51640000
H       -0.01740000      -2.79240000      -1.36640000
H        0.05700000       0.69480000       2.63410000
