19
Properties=species:S:1:pos:R:3 gdb_121675=T pbc="F F F"
C        0.06790000       1.31990000      -0.17870000
C        0.39680000      -0.15440000       0.06780000
C        0.91650000      -0.39940000       1.48910000
N        1.25720000      -1.79310000       1.73840000
C        0.48900000      -2.60470000       2.50090000
O       -0.52600000      -2.26920000       3.07830000
C        0.97280000      -4.07000000       2.64160000
C        2.18200000      -4.41530000       1.90740000
N        3.14400000      -4.63040000       1.30270000
H        0.95190000       1.95320000      -0.04450000
H       -0.30130000       1.47630000      -1.19610000
H       -0.70250000       1.67470000       0.51430000
H       -0.49390000      -0.77310000      -0.09100000
H        1.14750000      -0.49520000      -0.65690000
H        1.80240000       0.21920000       1.67880000
H        0.15610000      -0.13000000       2.22590000
H        2.06680000      -2.18190000       1.27880000
H        1.11940000      -4.25760000       3.70980000
H        0.14640000      -4.71180000       2.32160000
