15
Properties=species:S:1:pos:R:3 gdb_30024=T pbc="F F F"
C        0.03440000       1.46550000       0.02460000
N       -0.03640000       0.01900000       0.04320000
C        0.02070000      -0.83780000      -1.05000000
N       -0.02790000      -2.12410000      -0.71910000
C       -0.09120000      -2.07920000       0.62830000
C       -0.08430000      -0.82360000       1.11440000
O       -0.35290000      -0.75500000       2.45290000
C       -0.16190000      -2.16300000       2.80620000
O       -0.35150000      -2.98040000       1.64540000
H        0.95590000       1.82150000       0.49540000
H        0.01420000       1.80140000      -1.01350000
H       -0.82080000       1.90020000       0.54990000
H        0.15260000      -0.44870000      -2.04740000
H        0.87170000      -2.27490000       3.16670000
H       -0.89300000      -2.43200000       3.56900000
