15
Properties=species:S:1:pos:R:3 gdb_98047=T pbc="F F F"
C        0.09510000       1.34930000       0.29560000
O        0.00180000      -0.07330000       0.12950000
C       -1.24620000      -0.54120000      -0.05230000
O       -2.23820000       0.14500000      -0.08110000
C       -1.24260000      -1.97690000      -0.20880000
C       -1.30490000      -3.17150000      -0.35150000
C       -1.42900000      -4.61030000      -0.49820000
C       -2.76860000      -5.14700000       0.02510000
O       -2.87960000      -6.21270000       0.56330000
H        1.15610000       1.55910000       0.42730000
H       -0.29320000       1.86560000      -0.58580000
H       -0.47290000       1.67210000       1.17160000
H       -1.38090000      -4.87420000      -1.56590000
H       -0.61840000      -5.15150000      -0.00000000
H       -3.63460000      -4.47520000      -0.15260000
