15
Properties=species:S:1:pos:R:3 gdb_57126=T pbc="F F F"
N       -0.08190000       1.61170000      -0.09490000
C       -0.01830000       0.15130000      -0.02320000
C       -1.33940000      -0.44300000       0.12460000
C       -2.43100000      -0.95630000       0.23380000
C       -3.66080000      -1.52610000       0.35460000
C       -4.75040000      -2.03540000       0.46050000
C        0.79990000      -0.46250000      -1.20970000
N        0.57240000      -1.77050000      -1.47530000
O        1.63280000       0.21540000      -1.77690000
H        0.81240000       1.91100000      -0.48340000
H       -0.77790000       1.87160000      -0.78960000
H        0.57020000      -0.11180000       0.87090000
H       -5.71110000      -2.47750000       0.55680000
H       -0.22220000      -2.24680000      -1.08260000
H        1.07510000      -2.19930000      -2.23580000
