18
Properties=species:S:1:pos:R:3 gdb_83138=T pbc="F F F"
C        0.08520000       1.62210000      -0.13510000
C        0.08880000       0.11540000       0.00950000
C        1.28120000      -0.77090000      -0.19920000
N        2.58650000      -0.11480000      -0.17940000
C        2.82490000       0.39970000       1.18350000
C        1.67550000      -0.10440000       2.05620000
O        1.64750000      -0.15930000       3.26660000
C        0.62770000      -0.69310000       1.18700000
O       -0.18400000      -1.64310000       1.78540000
H        1.06910000       2.06190000       0.03790000
H       -0.21010000       1.89690000      -1.15340000
H       -0.62730000       2.08390000       0.55570000
H       -0.83100000      -0.36340000      -0.32180000
H        1.19800000      -1.64850000      -0.82980000
H        3.29800000      -0.79670000      -0.40950000
H        3.77110000       0.04070000       1.59830000
H        2.86090000       1.49670000       1.21220000
H        0.00880000      -1.57800000       2.73360000
