18
Properties=species:S:1:pos:R:3 gdb_81578=T pbc="F F F"
N        0.31130000       1.07810000       0.06210000
H        0.45050000       0.06480000       0.01580000
H        1.22540000       1.52980000       0.12280000
H       -0.13450000       1.38530000      -0.80400000
C       -0.55670000       1.47940000       1.27310000
C       -1.80560000       0.62330000       1.55050000
C       -0.88120000      -0.52090000       2.06120000
C       -0.24600000       0.78910000       2.61350000
C       -1.70840000       1.24420000       2.99960000
C       -2.06130000       2.75610000       3.28170000
O       -2.76110000       2.90820000       4.28500000
O       -1.59860000       3.60500000       2.47020000
H       -0.69480000       2.57320000       1.30520000
H       -2.69700000       0.54680000       0.92750000
H       -1.31450000      -1.19520000       2.80220000
H       -0.31720000      -1.12080000       1.32720000
H        0.65710000       0.90330000       3.21350000
H       -2.15960000       0.60600000       3.76120000
