15
Properties=species:S:1:pos:R:3 gdb_37864=T pbc="F F F"
O        0.01820000       1.39570000       0.01030000
C        1.30850000       1.95890000       0.00030000
C        2.41600000       1.24180000       0.74150000
O        2.11000000       0.04120000       1.41050000
C        1.13840000      -0.72930000       0.74340000
C        0.03090000      -0.01210000       0.00210000
C        1.12300000      -0.72080000      -0.76990000
O        2.08040000       0.05770000      -1.44810000
C        2.40070000       1.25040000      -0.77180000
H        1.24620000       3.04110000       0.00680000
H        3.16580000       1.79820000       1.29220000
H        0.93720000      -1.64020000       1.29550000
H       -0.98230000      -0.39710000       0.01000000
H        0.91060000      -1.62550000      -1.32790000
H        3.13940000       1.81290000      -1.33120000
