20
Properties=species:S:1:pos:R:3 gdb_9850=T pbc="F F F"
C       -0.07090000       1.58480000      -0.05890000
C       -0.16650000       0.06410000      -0.19740000
C        0.84100000      -0.50340000      -1.21160000
O        2.17500000      -0.15870000      -0.86070000
C        0.73190000      -2.01240000      -1.35750000
O        1.17530000      -2.69710000      -0.20400000
C       -0.35110000      -2.64280000      -2.18890000
C        1.09700000      -2.67740000      -2.64520000
H        0.94690000       1.87670000       0.21100000
H       -0.32180000       2.08200000      -1.00270000
H       -0.75600000       1.95910000       0.70770000
H        0.01840000      -0.40260000       0.78050000
H       -1.17960000      -0.22900000      -0.50160000
H        0.65230000      -0.04170000      -2.18980000
H        2.45610000      -0.83120000      -0.22650000
H        0.47590000      -2.65060000       0.45740000
H       -0.77780000      -3.57090000      -1.82450000
H       -1.04760000      -1.99680000      -2.71340000
H        1.39670000      -2.05210000      -3.47860000
H        1.61540000      -3.62600000      -2.57110000
