19
Properties=species:S:1:pos:R:3 gdb_82612=T pbc="F F F"
C       -0.20920000       1.60120000       0.04360000
C        0.12140000       0.12900000      -0.06800000
C        1.44220000      -0.57300000      -0.29240000
O        2.68300000       0.03270000       0.04550000
C        2.99670000      -0.23020000       1.40470000
C        2.47840000       0.84520000       2.29770000
O        2.24230000       2.11350000       1.78650000
C        1.65740000      -0.44420000       2.09460000
C        0.68060000      -0.81280000       0.99000000
H       -0.06800000       2.10090000      -0.92200000
H       -1.26490000       1.71160000       0.31460000
H        0.37750000       2.11830000       0.79870000
H       -0.63730000      -0.39600000      -0.65050000
H        1.53740000      -1.29570000      -1.09810000
H        3.91690000      -0.78800000       1.55550000
H        2.90000000       0.90060000       3.29860000
H        2.45260000       2.05850000       0.84310000
H        1.59860000      -1.06010000       2.98540000
H        0.15010000      -1.74220000       1.16740000
