16
Properties=species:S:1:pos:R:3 gdb_29536=T pbc="F F F"
O        0.10400000       1.38040000      -0.10550000
C        0.06370000       0.01680000      -0.01580000
C        0.05160000      -0.82190000      -1.11190000
N        0.00880000      -2.13200000      -0.64710000
C       -0.00530000      -2.10480000       0.71060000
C        0.02730000      -0.80780000       1.14190000
C        0.01100000      -0.80440000       2.63810000
O       -0.03360000      -2.20030000       2.99830000
C       -0.04540000      -3.06190000       1.85330000
H        0.10350000       1.74590000       0.78290000
H        0.06980000      -0.59300000      -2.16380000
H       -0.00820000      -2.94650000      -1.23400000
H        0.90630000      -0.35370000       3.09310000
H       -0.86640000      -0.30220000       3.07380000
H       -0.95130000      -3.68790000       1.87660000
H        0.82270000      -3.73850000       1.89630000
