19
Properties=species:S:1:pos:R:3 gdb_100696=T pbc="F F F"
C       -0.07020000       1.49690000      -0.00630000
C       -0.02500000       0.04230000      -0.01030000
C        0.03280000      -1.16050000      -0.00190000
C        0.03420000      -2.62150000      -0.02800000
O       -1.28840000      -3.15560000       0.06890000
C        0.74910000      -3.16950000      -1.27910000
O        2.09330000      -2.73910000      -1.22810000
C        0.68980000      -4.69460000      -1.33230000
O        1.50390000      -5.07440000      -2.44180000
H        0.91140000       1.91680000       0.23910000
H       -0.36360000       1.89130000      -0.98530000
H       -0.78600000       1.87160000       0.73350000
H        0.57420000      -3.00440000       0.84720000
H       -1.86280000      -2.58590000      -0.45380000
H        0.24280000      -2.77040000      -2.17500000
H        2.56650000      -3.30820000      -1.84880000
H        1.08880000      -5.10550000      -0.39260000
H       -0.34530000      -5.03390000      -1.45100000
H        1.66490000      -6.02050000      -2.39450000
