20
Properties=species:S:1:pos:R:3 gdb_40789=T pbc="F F F"
C        0.24780000       1.48930000       0.06160000
O        1.06990000       0.40470000      -0.39120000
C       -0.25370000       0.11170000       0.06350000
C       -0.40050000      -0.71810000       1.31920000
C        0.02220000      -2.20030000       1.13700000
C        0.40670000      -2.63980000       2.56380000
C        0.84930000      -1.34650000       3.23390000
C        1.77770000      -0.46550000       2.48640000
N        0.32770000      -0.18130000       2.48730000
H        0.54940000       1.93670000       1.00490000
H       -0.07280000       2.18130000      -0.71580000
H       -0.93580000      -0.18250000      -0.73710000
H       -1.46400000      -0.68430000       1.59480000
H       -0.77860000      -2.80760000       0.70820000
H        0.87690000      -2.26850000       0.45810000
H       -0.46350000      -3.04350000       3.09380000
H        1.18130000      -3.41280000       2.57500000
H        0.79680000      -1.28260000       4.31710000
H        2.36740000       0.27120000       3.02400000
H        2.23960000      -0.82900000       1.57550000
