17
Properties=species:S:1:pos:R:3 gdb_79908=T pbc="F F F"
C       -0.10390000       1.56040000      -0.04080000
C        0.06480000       0.05980000       0.02770000
C        1.35690000      -0.67190000      -0.17990000
N        2.58090000       0.10770000      -0.16690000
C        2.78670000       0.50170000       1.03970000
N        3.77890000       1.30740000       1.48660000
C        1.72510000       0.05240000       2.03360000
O        1.77030000       0.24920000       3.22580000
C        0.73660000      -0.68920000       1.20710000
H        0.80800000       2.09620000       0.22820000
H       -0.37420000       1.85850000      -1.05940000
H       -0.90430000       1.89070000       0.62880000
H       -0.80910000      -0.48840000      -0.32000000
H        1.37800000      -1.55700000      -0.80600000
H        4.57990000       1.47240000       0.90010000
H        3.90300000       1.34510000       2.48620000
H        0.21010000      -1.52500000       1.64850000
