16
Properties=species:S:1:pos:R:3 gdb_42917=T pbc="F F F"
O       -1.09450000       0.32880000       0.45030000
C       -0.65500000       1.43020000       0.30160000
C       -1.13950000       2.68920000      -0.35250000
C       -0.81680000       3.83820000       0.54430000
N        0.26140000       3.29810000      -0.27400000
C        0.76230000       2.05930000       0.44160000
C        1.46300000       2.21100000       1.75760000
C        2.31050000       1.12630000       2.27300000
O        2.89060000       2.30260000       1.71440000
H       -1.78560000       2.77930000      -1.21740000
H       -1.16440000       4.81370000       0.21900000
H       -0.81610000       3.69920000       1.62220000
H        1.42720000       1.52330000      -0.24480000
H        1.00330000       2.87930000       2.48450000
H        2.42580000       1.00540000       3.34870000
H        2.43270000       0.21680000       1.68690000
