16
Properties=species:S:1:pos:R:3 gdb_51959=T pbc="F F F"
O        0.98380000       0.25530000       0.64850000
C        0.96960000       1.05080000      -0.25020000
C        0.61070000       2.51730000      -0.04390000
O        0.82420000       3.30320000      -1.21630000
C        2.12970000       3.44920000      -1.55480000
O        3.04440000       2.95140000      -0.94340000
N        2.24130000       4.17500000      -2.72570000
C        1.78690000       5.54720000      -2.87430000
C        3.24650000       5.20280000      -2.88860000
H        1.18040000       0.77040000      -1.30530000
H       -0.45960000       2.59590000       0.16730000
H        1.17660000       2.90590000       0.80700000
H        1.26790000       5.77120000      -3.80120000
H        1.39320000       6.04430000      -1.99220000
H        3.83980000       5.45790000      -2.01510000
H        3.78930000       5.18050000      -3.82840000
