18
Properties=species:S:1:pos:R:3 gdb_9262=T pbc="F F F"
C        0.00840000       1.50880000       0.18710000
C       -0.03880000      -0.01480000       0.06610000
C       -1.47040000      -0.54630000      -0.04350000
O       -2.11580000      -0.07120000      -1.20840000
O        0.59760000      -0.48630000      -1.12510000
C        2.01070000      -0.41860000      -1.12280000
C        2.53440000      -1.07990000      -2.31130000
C        2.98980000      -1.61590000      -3.28440000
H        1.03340000       1.88950000       0.18910000
H       -0.53930000       1.96280000      -0.64190000
H       -0.46080000       1.82300000       1.12500000
H        0.44470000      -0.47820000       0.94260000
H       -1.43960000      -1.64630000      -0.02240000
H       -2.06180000      -0.20550000       0.81260000
H       -1.53110000      -0.29570000      -1.94240000
H        2.36270000       0.62440000      -1.10400000
H        2.41370000      -0.90640000      -0.21910000
H        3.38870000      -2.09240000      -4.14570000
