21
Properties=species:S:1:pos:R:3 gdb_100357=T pbc="F F F"
C       -0.13790000       1.30160000       0.08940000
O        0.17790000      -0.07460000      -0.02820000
C        0.75500000      -0.53290000      -1.27020000
C        0.05130000       0.03230000      -2.50670000
C        2.24840000      -0.14800000      -1.26190000
O        2.88980000      -0.58370000      -0.08310000
C        0.61730000      -2.06850000      -1.20390000
C       -0.81000000      -2.54670000      -1.06350000
O       -1.32560000      -3.36410000      -1.78490000
H        0.72150000       1.95520000      -0.11280000
H       -0.96290000       1.59530000      -0.57090000
H       -0.45150000       1.45450000       1.12490000
H        0.20130000       1.11090000      -2.60570000
H        0.45190000      -0.44310000      -3.40660000
H       -1.02410000      -0.16630000      -2.47640000
H        2.76050000      -0.61840000      -2.10750000
H        2.34230000       0.94300000      -1.39020000
H        2.28660000      -0.36070000       0.63780000
H        1.05550000      -2.52950000      -2.09310000
H        1.18300000      -2.40880000      -0.32770000
H       -1.36900000      -2.08860000      -0.22070000
