18
Properties=species:S:1:pos:R:3 gdb_56398=T pbc="F F F"
C       -0.24600000       1.60730000       0.80230000
C       -0.08060000       0.25550000       0.06220000
C        0.77540000      -0.66170000       0.82390000
C        1.48830000      -1.38790000       1.46170000
C       -1.37980000      -0.35530000      -0.24280000
C       -2.45340000      -0.84090000      -0.49560000
C       -3.74160000      -1.40870000      -0.77930000
C       -3.96560000      -2.87450000      -0.59400000
N       -4.58970000      -1.91970000       0.32700000
H        0.73340000       2.05830000       0.97990000
H       -0.85180000       2.28870000       0.20020000
H       -0.74130000       1.45410000       1.76350000
H        0.42320000       0.46220000      -0.89370000
H        2.11610000      -2.03880000       2.01850000
H       -4.31350000      -0.90050000      -1.55170000
H       -4.65430000      -3.39120000      -1.25630000
H       -3.12240000      -3.46570000      -0.25010000
H       -4.05400000      -1.88030000       1.19110000
