21
Properties=species:S:1:pos:R:3 gdb_115827=T pbc="F F F"
C       -0.59520000       0.98410000      -0.08400000
O       -0.12770000      -0.34340000      -0.22700000
C        0.87710000      -0.48530000      -1.19870000
C        1.26830000      -1.96080000      -1.25430000
C        0.20020000      -2.52240000      -2.20810000
C       -0.02870000      -1.35020000      -3.15120000
C        0.20320000      -1.40810000      -4.63240000
C       -1.20030000      -1.22510000      -4.07120000
O        0.41670000      -0.16570000      -2.49780000
H        0.21890000       1.66540000       0.20870000
H       -1.04340000       1.35590000      -1.01280000
H       -1.34980000       0.97500000       0.70560000
H        1.70320000       0.20790000      -0.98340000
H        2.26890000      -2.05410000      -1.68630000
H        1.26380000      -2.41730000      -0.26390000
H        0.51950000      -3.42490000      -2.73360000
H       -0.71310000      -2.75220000      -1.65110000
H        0.66900000      -0.54240000      -5.08990000
H        0.46330000      -2.36050000      -5.08310000
H       -1.90010000      -2.05230000      -4.13500000
H       -1.64740000      -0.24200000      -4.16740000
