19
Properties=species:S:1:pos:R:3 gdb_22220=T pbc="F F F"
C        0.26950000       0.96790000      -0.85720000
C        0.03320000      -0.22680000       0.08740000
C        0.52770000       0.07840000       1.51970000
C        1.96450000       0.33880000       1.56180000
N        3.10270000       0.53930000       1.58050000
C       -1.42260000      -0.64550000       0.07350000
C       -2.00700000      -1.21190000      -1.19330000
N       -2.08860000      -0.48510000       1.15180000
O       -3.42520000      -0.88020000       1.00690000
H        1.33140000       1.22550000      -0.89020000
H       -0.05420000       0.73940000      -1.87610000
H       -0.28870000       1.84510000      -0.51330000
H        0.61670000      -1.07570000      -0.29460000
H       -0.00670000       0.94320000       1.92490000
H        0.29810000      -0.75980000       2.18370000
H       -2.71400000      -0.50630000      -1.64290000
H       -1.23060000      -1.44070000      -1.92580000
H       -2.57320000      -2.12000000      -0.96890000
H       -3.77990000      -0.73140000       1.88990000
