13
Properties=species:S:1:pos:R:3 gdb_133100=T pbc="F F F"
O        0.36280000       0.82350000      -0.84810000
C       -0.05890000       0.17440000       0.31620000
C       -1.42550000      -0.45000000       0.19810000
N       -1.92350000      -1.09730000       1.25730000
C       -3.13140000      -1.61580000       1.06590000
N       -3.85420000      -1.54190000      -0.05720000
C       -3.24530000      -0.87730000      -1.01890000
F       -3.89290000      -0.76230000      -2.15250000
N       -2.05160000      -0.31020000      -0.97340000
H       -0.34790000       0.72390000      -1.49720000
H        0.64360000      -0.62450000       0.60140000
H       -0.08860000       0.86980000       1.16970000
H       -3.58100000      -2.15280000       1.89730000
