17
Properties=species:S:1:pos:R:3 gdb_52894=T pbc="F F F"
C        0.10030000       1.48890000       0.07480000
C        0.04040000       0.03640000       0.02500000
C       -0.00430000      -1.16640000      -0.00780000
C       -0.02800000      -2.60770000      -0.06940000
O       -0.51450000      -3.29330000       1.11280000
C       -1.32400000      -3.35360000      -0.05340000
C       -2.66270000      -2.66920000      -0.01240000
C        1.11540000      -3.22090000      -0.70750000
C        2.05860000      -3.72990000      -1.25030000
H        1.10490000       1.84960000      -0.17060000
H       -0.60080000       1.94190000      -0.63450000
H       -0.15120000       1.85800000       1.07500000
H       -1.30270000      -4.32500000      -0.55070000
H       -2.57550000      -1.66520000       0.40650000
H       -3.08260000      -2.59840000      -1.02110000
H       -3.35800000      -3.24910000       0.60340000
H        2.89710000      -4.17770000      -1.72390000
