14
Properties=species:S:1:pos:R:3 gdb_129117=T pbc="F F F"
N       -0.11570000       1.23540000       0.00170000
C       -0.00680000      -0.02480000      -0.00300000
C       -1.22840000      -0.97060000       0.03760000
N       -0.57420000      -2.25950000       0.01390000
N       -0.95140000      -3.56950000       0.02560000
C        0.22910000      -4.16810000      -0.01480000
N        1.33900000      -3.34900000      -0.05160000
C        0.76190000      -2.17180000      -0.03110000
N        1.13180000      -0.84090000      -0.04220000
H        0.78910000       1.70620000      -0.02840000
H       -1.81310000      -0.81140000       0.94770000
H       -1.87400000      -0.80950000      -0.82990000
H        0.31120000      -5.24450000      -0.01880000
H        2.08000000      -0.50890000      -0.07420000
