18
Properties=species:S:1:pos:R:3 gdb_29444=T pbc="F F F"
C       -0.02010000       1.52380000       0.01060000
C       -0.00730000       0.02790000       0.01430000
C       -0.02520000      -0.79200000      -1.05920000
C       -0.00290000      -2.26220000      -0.65370000
C        0.03050000      -2.12420000       0.83560000
C        0.02820000      -0.80270000       1.22630000
C        0.06090000      -0.77150000       2.64860000
C        0.08220000      -2.08760000       3.06440000
N        0.06300000      -2.90870000       1.94950000
H        0.86910000       1.92770000       0.51040000
H       -0.04970000       1.92250000      -1.00700000
H       -0.88890000       1.91280000       0.55580000
H       -0.05210000      -0.47700000      -2.09470000
H       -0.88740000      -2.79840000      -1.02460000
H        0.87250000      -2.78310000      -1.06560000
H        0.06860000       0.08830000       3.30110000
H        0.10910000      -2.51240000       4.05520000
H        0.07220000      -3.91320000       1.97710000
