14
Properties=species:S:1:pos:R:3 gdb_27036=T pbc="F F F"
C        0.14060000       1.50530000       0.05470000
C       -0.03680000       0.03490000       0.04900000
C       -1.12420000      -0.77130000      -0.05150000
N       -0.64460000      -2.08260000       0.00660000
C        0.71440000      -2.09550000       0.13960000
O        1.50100000      -2.99080000       0.22360000
O        1.08170000      -0.73200000       0.16500000
C       -2.53350000      -0.47980000      -0.19170000
O       -3.38060000      -1.34810000      -0.26740000
H        0.79000000       1.81710000      -0.77060000
H       -0.82010000       2.01300000      -0.04440000
H        0.61640000       1.83140000       0.98590000
H       -1.22370000      -2.90360000      -0.04560000
H       -2.79250000       0.59720000      -0.22590000
