17
Properties=species:S:1:pos:R:3 gdb_69208=T pbc="F F F"
C       -0.01420000       1.55600000      -0.00570000
C        0.08430000       0.05200000       0.00460000
C       -0.77110000      -0.78610000       0.92460000
C        0.72610000      -0.77420000       1.13370000
C        1.46910000      -1.91380000       0.50700000
O        2.33130000      -2.56740000       1.03620000
C        1.01310000      -2.03440000      -0.95210000
C        0.44580000      -0.64990000      -1.27890000
O        0.37760000      -0.15130000      -2.37390000
H        0.92440000       2.00870000      -0.33820000
H       -0.79840000       1.87830000      -0.69670000
H       -0.25130000       1.94210000       0.98970000
H       -1.35640000      -0.23690000       1.65410000
H       -1.25160000      -1.68630000       0.55790000
H        1.13550000      -0.31650000       2.02610000
H        1.83230000      -2.31010000      -1.61830000
H        0.23830000      -2.80400000      -1.05200000
