17
Properties=species:S:1:pos:R:3 gdb_45780=T pbc="F F F"
O        0.01750000      -0.08390000       0.06420000
C       -0.03600000       1.12430000       0.06020000
C       -1.31110000       1.94990000       0.07280000
C       -1.11680000       3.30780000       0.73240000
C       -2.32670000       4.16660000       0.99430000
C       -1.60380000       3.53360000       2.15350000
N        0.08870000       4.01350000       0.39040000
C        1.08540000       3.30290000       0.05230000
N        1.10300000       1.91070000      -0.02840000
H       -1.60120000       2.08570000      -0.97950000
H       -2.09850000       1.36240000       0.54860000
H       -2.19740000       5.23130000       0.84130000
H       -3.29850000       3.77410000       0.71420000
H       -2.06910000       2.69570000       2.66190000
H       -0.99650000       4.17230000       2.78320000
H        2.03610000       3.77510000      -0.18880000
H        1.97640000       1.42190000      -0.16250000
