19
Properties=species:S:1:pos:R:3 gdb_98364=T pbc="F F F"
C        0.03180000       1.34230000      -0.20010000
O       -0.05080000      -0.07640000      -0.00770000
C       -1.29600000      -0.59020000      -0.02270000
O       -2.28740000       0.07540000      -0.18900000
C       -1.26500000      -2.10200000       0.17650000
C       -0.47320000      -2.49560000       1.43710000
C       -2.69510000      -2.66790000       0.18530000
C       -2.70770000      -4.15800000      -0.06060000
O       -3.23950000      -4.97660000       0.64310000
H        1.09330000       1.58570000      -0.15740000
H       -0.38780000       1.62400000      -1.16900000
H       -0.51490000       1.86950000       0.58550000
H       -0.72910000      -2.50310000      -0.69660000
H       -0.44890000      -3.58370000       1.54650000
H        0.55250000      -2.12730000       1.38700000
H       -0.94460000      -2.08320000       2.33520000
H       -3.20420000      -2.45370000       1.12870000
H       -3.26870000      -2.18920000      -0.61850000
H       -2.16870000      -4.46780000      -0.98920000
