22
Properties=species:S:1:pos:R:3 gdb_15984=T pbc="F F F"
C        0.00470000       1.56960000      -0.10980000
C        0.02410000       0.05050000       0.09220000
C       -1.36800000      -0.56790000       0.07450000
C       -2.15210000      -0.60330000      -1.27420000
C       -2.60030000      -2.05920000      -0.95790000
C       -1.52890000      -2.10070000       0.13920000
C       -0.41550000      -3.10720000       0.21950000
C       -1.44370000      -3.01020000       1.32550000
H        1.01660000       1.98650000      -0.10160000
H       -0.45690000       1.83510000      -1.06700000
H       -0.56780000       2.06680000       0.68130000
H        0.63510000      -0.41790000      -0.69020000
H        0.51630000      -0.18300000       1.04640000
H       -1.98350000      -0.09720000       0.85300000
H       -2.93900000       0.14050000      -1.41720000
H       -1.47380000      -0.56210000      -2.13230000
H       -3.61740000      -2.10500000      -0.55480000
H       -2.51480000      -2.79150000      -1.76580000
H       -0.45650000      -3.96570000      -0.44420000
H        0.59050000      -2.75770000       0.42900000
H       -1.12840000      -2.58770000       2.27520000
H       -2.17790000      -3.80500000       1.41600000
