19
Properties=species:S:1:pos:R:3 gdb_120674=T pbc="F F F"
O       -0.04530000       1.42230000       0.25490000
C       -0.07270000       0.00870000       0.36520000
C       -1.27430000      -0.49100000      -0.43190000
C       -1.38020000      -1.99380000      -0.42200000
O       -1.81420000      -2.60600000       0.81610000
C       -2.65620000      -2.69700000      -0.31020000
C       -4.10020000      -2.20750000      -0.37520000
O       -4.48720000      -3.42800000      -1.04650000
C       -3.16480000      -3.99820000      -0.92270000
H        0.67200000       1.75350000       0.80290000
H        0.85140000      -0.44260000      -0.03290000
H       -0.17310000      -0.31580000       1.41160000
H       -2.18440000      -0.04670000      -0.01600000
H       -1.18320000      -0.14030000      -1.46740000
H       -0.55380000      -2.52870000      -0.89580000
H       -4.58150000      -2.09650000       0.60470000
H       -4.29900000      -1.31780000      -0.98480000
H       -2.74570000      -4.29030000      -1.89310000
H       -3.13960000      -4.85530000      -0.23750000
