21
Properties=species:S:1:pos:R:3 gdb_115865=T pbc="F F F"
C        0.01280000       1.53440000       0.09380000
C        0.01060000       0.02740000       0.01530000
C       -0.84840000      -0.80590000       0.94010000
C        0.65410000      -0.86520000       1.05510000
C        1.32730000      -1.98690000       0.28800000
O        0.71550000      -1.97950000      -1.00040000
C        0.34360000      -0.63320000      -1.31900000
C       -0.77230000      -0.72100000      -2.35220000
O       -0.35690000      -1.43290000      -3.50190000
H        0.95600000       1.95040000      -0.27920000
H       -0.79910000       1.96960000      -0.50030000
H       -0.11830000       1.87510000       1.12520000
H       -1.38690000      -0.27560000       1.71790000
H       -1.36550000      -1.67350000       0.54310000
H        1.15010000      -0.45150000       1.92590000
H        2.41120000      -1.80360000       0.21240000
H        1.17490000      -2.98450000       0.71350000
H        1.20190000      -0.10760000      -1.77300000
H       -1.65850000      -1.18150000      -1.88850000
H       -1.05100000       0.28500000      -2.68400000
H        0.02760000      -2.25570000      -3.17730000
