16
Properties=species:S:1:pos:R:3 gdb_30141=T pbc="F F F"
C        1.05970000       0.99390000      -0.71290000
C        0.02530000       0.15030000      -0.02020000
O        0.44790000      -1.10190000       0.53150000
C       -0.01120000      -0.09790000       1.43970000
C        0.98590000       0.42670000       2.39100000
C        2.30360000       0.12910000       2.51490000
O        2.80200000       0.84850000       3.56630000
C        1.74040000       1.54580000       4.02630000
N        0.63860000       1.34260000       3.38350000
H        1.95950000       1.10340000      -0.10360000
H        1.34030000       0.53960000      -1.66870000
H        0.65460000       1.99010000      -0.91990000
H       -0.93700000       0.08880000      -0.53270000
H       -0.98730000      -0.28920000       1.88700000
H        2.98240000      -0.52850000       2.00280000
H        1.91310000       2.19210000       4.87250000
