16
Properties=species:S:1:pos:R:3 gdb_88713=T pbc="F F F"
C       -0.40660000       1.36410000       0.21320000
C       -0.02860000      -0.09410000       0.19770000
O        1.32010000      -0.43550000      -0.14230000
C        0.85880000      -0.75660000       1.17200000
C        1.52930000      -0.01740000       2.28260000
O        0.98780000      -0.19880000       3.59140000
C        2.29700000      -0.71200000       3.34320000
C        2.43970000      -2.15220000       3.35310000
N        2.57380000      -3.30000000       3.36670000
H        0.35380000       1.98420000       0.69170000
H       -0.53940000       1.72530000      -0.81150000
H       -1.35440000       1.50230000       0.74370000
H       -0.76620000      -0.74560000      -0.27490000
H        0.70790000      -1.81920000       1.36310000
H        1.84430000       0.99880000       2.05270000
H        3.10670000      -0.17900000       3.83820000
