18
Properties=species:S:1:pos:R:3 gdb_13768=T pbc="F F F"
C        0.01860000       1.45790000      -0.26070000
C        0.02840000      -0.00230000       0.19770000
O        0.60920000      -0.13400000       1.49170000
C       -1.35700000      -0.61560000       0.14940000
C       -1.92490000      -1.15270000      -1.13200000
C       -1.55470000      -2.11680000      -0.01280000
C       -0.43890000      -3.00380000      -0.16900000
C        0.48410000      -3.76340000      -0.30470000
H        1.02540000       1.87910000      -0.19580000
H       -0.33580000       1.54810000      -1.29210000
H       -0.64540000       2.06000000       0.37290000
H        0.68790000      -0.58370000      -0.45580000
H        0.08400000       0.39320000       2.10400000
H       -2.06920000      -0.13940000       0.82190000
H       -2.97740000      -1.00590000      -1.34680000
H       -1.28150000      -1.15860000      -2.00530000
H       -2.38820000      -2.53830000       0.54180000
H        1.30470000      -4.42810000      -0.41270000
