20
Properties=species:S:1:pos:R:3 gdb_82328=T pbc="F F F"
O        0.53170000       0.67530000      -0.73690000
C        0.16220000      -0.46780000       0.00990000
C        0.59670000      -0.38400000       1.46450000
N       -0.18780000       0.65730000       2.17350000
C       -0.52440000      -0.77600000       2.34500000
C       -1.69980000      -1.22750000       1.49730000
C       -1.36620000      -0.71830000       0.09140000
C       -2.30650000       0.21230000      -0.63090000
C       -2.12430000      -1.20250000      -1.11500000
H        0.22190000       1.42830000      -0.21640000
H        0.66260000      -1.31040000      -0.48180000
H        1.63840000      -0.53310000       1.72810000
H        0.33860000       0.97190000       2.98470000
H       -0.35040000      -1.23210000       3.31440000
H       -1.75250000      -2.32370000       1.52220000
H       -2.65700000      -0.84310000       1.86480000
H       -3.23480000       0.47560000      -0.13490000
H       -1.86730000       1.00220000      -1.22900000
H       -1.56650000      -1.35130000      -2.03480000
H       -2.93070000      -1.91320000      -0.96180000
