20
Properties=species:S:1:pos:R:3 gdb_90630=T pbc="F F F"
C       -0.05930000       1.50320000      -0.02570000
C        0.01680000      -0.01780000       0.03790000
C        1.09580000      -0.64900000      -0.90890000
C        1.86210000      -1.14950000       0.32000000
C        0.81230000      -0.54600000       1.24440000
C        0.99080000      -2.05840000       1.18040000
C       -0.04410000      -3.03590000       0.64130000
C        1.70390000      -2.57530000       2.32830000
N        2.26160000      -3.00730000       3.24550000
H        0.93260000       1.95360000       0.09170000
H       -0.46780000       1.83230000      -0.98700000
H       -0.70260000       1.89960000       0.76730000
H       -0.98980000      -0.43750000      -0.06240000
H        0.76600000      -1.40370000      -1.62880000
H        1.65140000       0.12160000      -1.44860000
H        2.93920000      -1.17130000       0.43030000
H        0.94630000      -0.02050000       2.18280000
H       -0.55730000      -2.63650000      -0.23410000
H        0.43300000      -3.97730000       0.35340000
H       -0.79660000      -3.25780000       1.40380000
