20
Properties=species:S:1:pos:R:3 gdb_97450=T pbc="F F F"
C       -0.90420000       0.54050000      -0.37590000
N        0.37720000      -0.08510000      -0.12420000
C        0.80700000      -0.88500000      -0.99250000
O        2.01030000      -1.48630000      -0.82730000
C        2.38320000      -2.42650000      -1.83360000
C        1.67840000      -3.74630000      -1.64480000
O        0.35170000      -3.85540000      -2.17860000
C        1.37440000      -4.68950000      -2.73500000
C        1.72880000      -4.49480000      -4.18800000
H       -0.78610000       1.63030000      -0.38490000
H       -1.37480000       0.23580000      -1.32500000
H       -1.59560000       0.30340000       0.44090000
H        0.28510000      -1.16010000      -1.92000000
H        2.18840000      -2.01720000      -2.83070000
H        3.46310000      -2.55790000      -1.71690000
H        1.78310000      -4.15110000      -0.63670000
H        1.27970000      -5.73650000      -2.43900000
H        1.80790000      -3.44000000      -4.45680000
H        2.68000000      -4.98730000      -4.41660000
H        0.95910000      -4.94690000      -4.82190000
