22
Properties=species:S:1:pos:R:3 gdb_6476=T pbc="F F F"
C       -0.14290000       1.55140000      -0.02650000
C        0.07770000       0.03490000      -0.05560000
C        0.73330000      -0.51390000       1.20960000
O        2.03410000       0.03800000       1.40460000
C       -0.09150000      -0.51330000       2.53520000
C        0.46680000      -1.93230000       2.84490000
C       -0.47170000      -2.97210000       3.43530000
C        0.87240000      -2.05100000       1.34800000
H        0.80760000       2.09200000       0.04190000
H       -0.64260000       1.89530000      -0.93680000
H       -0.76490000       1.84950000       0.82520000
H       -0.88340000      -0.47330000      -0.20040000
H        0.71010000      -0.23110000      -0.91180000
H        1.92870000       0.96940000       1.62480000
H        0.12510000       0.28740000       3.24860000
H       -1.17020000      -0.53470000       2.34520000
H        1.36680000      -1.84550000       3.46040000
H       -1.38000000      -3.07360000       2.82940000
H        0.00550000      -3.95750000       3.48480000
H       -0.77950000      -2.70150000       4.45190000
H        0.11480000      -2.58020000       0.76070000
H        1.85960000      -2.45390000       1.11270000
