14
Properties=species:S:1:pos:R:3 gdb_27713=T pbc="F F F"
N        0.11590000       1.32430000       0.21210000
C       -0.05770000      -0.02990000       0.07040000
C       -1.17950000      -0.81580000      -0.00360000
C       -0.70570000      -2.16090000      -0.06470000
N       -1.47700000      -3.29200000      -0.21610000
C        0.67210000      -2.09910000      -0.01760000
O        1.06590000      -0.75950000       0.05980000
C        1.64050000      -3.10230000      -0.03170000
N        2.40410000      -3.98040000      -0.04270000
H        1.02410000       1.65710000      -0.08000000
H       -0.64190000       1.88980000      -0.13890000
H       -2.20440000      -0.48230000      -0.02200000
H       -2.39800000      -3.24490000       0.19250000
H       -1.00770000      -4.16180000      -0.00720000
