18
Properties=species:S:1:pos:R:3 gdb_72422=T pbc="F F F"
C       -0.10330000       1.45800000       0.01400000
C        0.05630000      -0.04150000       0.00920000
C        0.78600000      -0.68290000      -1.18780000
N        1.05630000      -2.06000000      -0.69800000
C        0.42060000      -2.12730000       0.64430000
C        0.75230000      -0.74010000       1.19600000
C       -1.08750000      -1.97410000       0.42500000
O       -1.97810000      -2.77120000       0.47910000
O       -1.26450000      -0.67090000       0.03130000
H        0.87820000       1.94060000       0.04000000
H       -0.63150000       1.79690000      -0.88190000
H       -0.67360000       1.78040000       0.88930000
H        0.14790000      -0.66040000      -2.07690000
H        1.72160000      -0.15950000      -1.41730000
H        0.67030000      -2.76310000      -1.31810000
H        0.71010000      -3.01400000       1.20360000
H        1.82520000      -0.54500000       1.24840000
H        0.27110000      -0.51650000       2.15030000
