17
Properties=species:S:1:pos:R:3 gdb_35553=T pbc="F F F"
N        0.58990000      -0.79410000       1.08990000
C        0.27660000       0.21880000       0.62780000
C       -0.07110000       1.49050000      -0.04360000
C       -0.97100000       2.40360000       0.82450000
C        0.02870000       3.24120000       1.61450000
O        0.61520000       2.52260000       2.71880000
C        1.93120000       2.56700000       2.11990000
C        1.35930000       3.19900000       0.82470000
N        1.08260000       2.35110000      -0.32810000
H       -0.56960000       1.22040000      -0.98100000
H       -1.56200000       3.04560000       0.16520000
H       -1.64440000       1.84550000       1.47670000
H       -0.36310000       4.21550000       1.92280000
H        2.60680000       3.22370000       2.68250000
H        2.37610000       1.57080000       2.02650000
H        1.82100000       4.13630000       0.50830000
H        1.88760000       1.84080000      -0.67190000
