19
Properties=species:S:1:pos:R:3 gdb_38985=T pbc="F F F"
C       -0.01660000       1.56400000      -0.06200000
C        1.51270000       1.54720000       0.09190000
O        2.04000000       0.81180000      -1.02790000
C        1.55030000       0.07190000       0.08750000
C        2.35200000      -0.99850000       0.75030000
C        1.54990000      -1.53190000       1.95380000
O        0.20120000      -1.80790000       1.61440000
C       -0.51830000      -0.62940000       1.28120000
C        0.01710000      -0.00540000      -0.01260000
H       -0.54300000       2.00640000       0.78830000
H       -0.37510000       2.01680000      -0.98880000
H        2.17000000       2.27910000       0.54790000
H        2.51080000      -1.81510000       0.03480000
H        3.33620000      -0.63640000       1.06580000
H        1.97580000      -2.47080000       2.31690000
H        1.58530000      -0.79990000       2.77820000
H       -1.56800000      -0.92140000       1.18900000
H       -0.43960000       0.09590000       2.10930000
H       -0.35890000      -0.53210000      -0.89350000
