21
Properties=species:S:1:pos:R:3 gdb_83807=T pbc="F F F"
C       -0.12790000       1.52560000       0.12480000
C        0.01690000       0.02920000       0.03580000
C        0.07830000      -0.63140000      -1.12760000
C        0.17390000      -2.13550000      -1.22740000
C        0.93960000      -2.76330000      -0.04670000
C        0.57190000      -2.15420000       1.30260000
C        1.46400000      -1.07100000       1.87190000
O        2.62970000      -0.68190000       1.21150000
C        0.09680000      -0.70800000       1.32810000
H        0.70620000       1.97080000       0.68120000
H       -0.16880000       1.98750000      -0.86560000
H       -1.04270000       1.79890000       0.66600000
H        0.00960000      -0.07280000      -2.05900000
H       -0.84340000      -2.55190000      -1.27840000
H        0.65470000      -2.41770000      -2.17090000
H        0.76320000      -3.84270000      -0.02310000
H        2.01530000      -2.62830000      -0.21190000
H        0.10940000      -2.82340000       2.02120000
H        1.61230000      -1.03770000       2.94640000
H        2.37710000      -0.33700000       0.34510000
H       -0.65440000      -0.43160000       2.06440000
