20
Properties=species:S:1:pos:R:3 gdb_117583=T pbc="F F F"
O       -0.12920000       1.40210000      -0.22690000
C        0.02300000       0.01020000      -0.00160000
C       -1.37150000      -0.60440000      -0.02650000
C       -1.38040000      -2.13970000       0.13190000
C       -0.77480000      -2.54390000       1.41000000
N       -0.30550000      -2.85330000       2.42010000
C       -2.78510000      -2.71770000       0.00880000
C       -3.35080000      -3.01370000      -1.35590000
C       -2.98970000      -4.14420000      -0.42380000
H        0.72890000       1.82100000      -0.11460000
H        0.64880000      -0.45530000      -0.78210000
H        0.50400000      -0.19160000       0.96680000
H       -1.97590000      -0.14820000       0.76460000
H       -1.85090000      -0.36080000      -0.97990000
H       -0.75970000      -2.57690000      -0.66250000
H       -3.47860000      -2.33210000       0.75040000
H       -4.39850000      -2.79950000      -1.53300000
H       -2.71380000      -2.84600000      -2.21880000
H       -2.11000000      -4.73390000      -0.65970000
H       -3.78860000      -4.70970000       0.04150000
