23
Properties=species:S:1:pos:R:3 gdb_118495=T pbc="F F F"
C        4.25140000      -0.63680000      -0.63150000
C        2.74370000      -0.77080000      -0.40230000
C        2.40240000      -1.70010000       0.76580000
C        0.89770000      -1.87670000       0.98990000
O        0.34810000      -2.48340000      -0.17070000
C       -0.98260000      -2.10450000      -0.44550000
C        0.63620000      -2.69180000       2.25180000
C       -0.14510000      -3.93530000       2.26700000
O        1.27980000      -3.96530000       2.33630000
H        4.70510000      -1.60960000      -0.85100000
H        4.46930000       0.02950000      -1.47220000
H        4.75470000      -0.23140000       0.25360000
H        2.31190000       0.22240000      -0.21670000
H        2.26050000      -1.15370000      -1.30710000
H        2.82980000      -2.69540000       0.60120000
H        2.84840000      -1.31850000       1.69360000
H        0.43560000      -0.88550000       1.13680000
H       -1.28830000      -2.63430000      -1.35120000
H       -1.67230000      -2.37250000       0.36850000
H       -1.06500000      -1.02130000      -0.62250000
H        0.69240000      -2.11240000       3.17620000
H       -0.66680000      -4.23270000       3.17630000
H       -0.56280000      -4.31060000       1.33660000
