21
Properties=species:S:1:pos:R:3 gdb_122320=T pbc="F F F"
O       -0.08710000       1.37490000       0.18450000
C        0.04960000       0.01050000      -0.15880000
C       -1.29550000      -0.69680000      -0.17130000
O       -2.09390000      -0.02320000      -1.14330000
C       -3.40310000      -0.45660000      -1.20240000
C       -3.79200000      -1.72160000      -1.91650000
C       -4.34020000      -0.39120000      -2.39410000
C       -5.49060000       0.04490000      -1.47720000
C       -4.51400000       0.00970000      -0.25160000
H       -0.78550000       1.71730000      -0.38580000
H        0.52640000      -0.11180000      -1.14470000
H        0.70240000      -0.44990000       0.59010000
H       -1.18480000      -1.75950000      -0.43300000
H       -1.76610000      -0.62710000       0.81980000
H       -3.00730000      -2.13250000      -2.54390000
H       -4.44740000      -2.46070000      -1.45970000
H       -4.15170000      -0.03180000      -3.39790000
H       -5.85920000       1.05100000      -1.68680000
H       -6.34300000      -0.64040000      -1.43460000
H       -4.76960000      -0.65600000       0.57880000
H       -4.31830000       1.01040000       0.14100000
