12
Properties=species:S:1:pos:R:3 gdb_130904=T pbc="F F F"
O       -0.03140000      -0.05530000      -0.00380000
C        0.00870000       1.14660000       0.00550000
C        1.25370000       1.95790000      -0.00030000
N        2.44830000       1.39530000      -0.01680000
O        3.34940000       2.42590000      -0.01760000
C        2.68850000       3.61500000      -0.00140000
C        1.34500000       3.37510000       0.01110000
C        3.45460000       4.79440000       0.00050000
C        4.10410000       5.80690000       0.00220000
H       -0.91540000       1.76450000       0.01970000
H        0.54840000       4.09970000       0.02560000
H        4.67970000       6.70020000       0.00370000
