20
Properties=species:S:1:pos:R:3 gdb_78911=T pbc="F F F"
C       -0.10560000       1.57010000       0.07250000
C       -0.00550000       0.05090000       0.01060000
C        0.82900000      -0.51210000      -1.13110000
C        2.33790000      -0.31680000      -0.76050000
C        2.59270000      -1.74570000      -1.32660000
C        1.15470000      -2.00070000      -0.78750000
C        1.31040000      -1.78570000       0.73460000
C        2.16510000      -0.56590000       0.75230000
N        0.74180000      -0.49120000       1.16660000
H        0.88800000       2.03010000       0.05870000
H       -0.67160000       1.95820000      -0.78040000
H       -0.60890000       1.88340000       0.99130000
H       -1.01000000      -0.39160000       0.02110000
H        0.54650000      -0.29820000      -2.16050000
H        2.91940000       0.54910000      -1.07460000
H        2.64970000      -1.76820000      -2.41920000
H        3.41370000      -2.32870000      -0.89900000
H        0.53690000      -2.83200000      -1.12600000
H        1.34580000      -2.59590000       1.45170000
H        2.92430000      -0.33410000       1.48810000
