19
Properties=species:S:1:pos:R:3 gdb_127115=T pbc="F F F"
C        0.64190000       0.14070000      -0.99250000
N       -0.11420000       0.10490000       0.26060000
C       -0.00210000       1.35010000       1.01710000
C       -1.40890000      -0.39230000       0.18220000
N       -2.52940000       0.26760000       0.44150000
C       -3.48360000      -0.68570000       0.26540000
N       -3.04150000      -1.87700000      -0.08860000
N       -1.69050000      -1.68470000      -0.12620000
C       -0.79540000      -2.79460000      -0.36040000
H        1.69870000       0.31070000      -0.76690000
H        0.55790000      -0.80850000      -1.52370000
H        0.29610000       0.94380000      -1.66290000
H       -0.42150000       2.21120000       0.47700000
H       -0.53470000       1.25260000       1.96350000
H        1.05660000       1.54000000       1.21780000
H       -4.53800000      -0.49210000       0.39790000
H       -0.58780000      -2.93500000      -1.42710000
H        0.14180000      -2.60970000       0.16920000
H       -1.26580000      -3.69890000       0.02720000
