17
Properties=species:S:1:pos:R:3 gdb_25706=T pbc="F F F"
C        0.23890000       1.24480000      -0.89040000
C        0.06690000      -0.07250000      -0.29240000
C       -0.04950000      -1.15820000       0.21620000
C       -0.20790000      -2.47700000       0.82360000
C       -1.47370000      -3.18170000       0.41080000
N       -1.84960000      -4.37530000       0.81540000
C       -3.05320000      -4.61050000       0.19000000
C       -3.40430000      -3.54740000      -0.59870000
N       -2.38040000      -2.63830000      -0.44640000
H        1.17290000       1.70820000      -0.55450000
H        0.27390000       1.18730000      -1.98380000
H       -0.58040000       1.91900000      -0.61780000
H        0.64870000      -3.11380000       0.56800000
H       -0.19380000      -2.39110000       1.91760000
H       -3.59580000      -5.53090000       0.34420000
H       -4.25280000      -3.35250000      -1.23270000
H       -2.29030000      -1.73180000      -0.87580000
