21
Properties=species:S:1:pos:R:3 gdb_40465=T pbc="F F F"
C       -0.16020000       1.41310000      -0.14780000
C        1.25950000       0.97720000       0.11030000
C        0.14640000      -0.04440000       0.10550000
C       -0.28470000      -0.69940000       1.37110000
C       -0.36210000      -0.10100000       2.79580000
C       -0.83750000      -1.55430000       2.96860000
C       -1.59070000      -1.55950000       1.59600000
C       -0.90350000      -2.86260000       1.14250000
C        0.18860000      -2.10290000       1.92090000
H       -0.66810000       1.96530000       0.63570000
H       -0.43550000       1.71190000      -1.15320000
H        1.95960000       0.97650000      -0.71780000
H        1.70080000       1.23800000       1.06630000
H        0.10570000      -0.69300000      -0.76630000
H        0.58760000       0.16570000       3.27250000
H       -1.10830000       0.68360000       2.96270000
H       -1.16010000      -2.06890000       3.87460000
H       -2.61410000      -1.21980000       1.42510000
H       -1.26940000      -3.79060000       1.59400000
H       -0.74900000      -2.99940000       0.06740000
H        1.22150000      -2.39120000       2.12550000
