18
Properties=species:S:1:pos:R:3 gdb_18347=T pbc="F F F"
C        0.16750000       1.45140000       0.01020000
C       -0.00750000      -0.03470000      -0.03640000
C       -0.10670000      -0.80580000      -1.12410000
C       -0.28710000      -2.27330000      -0.81370000
C       -0.13670000      -2.32250000       0.71400000
O        1.22610000      -2.55950000       1.14250000
C        1.29220000      -1.28640000       1.81580000
C       -0.07430000      -0.86030000       1.22600000
H        1.08720000       1.72910000       0.54120000
H        0.21330000       1.88440000      -0.99260000
H       -0.65890000       1.93080000       0.55080000
H       -0.06880000      -0.42910000      -2.14160000
H       -1.26460000      -2.64740000      -1.14760000
H        0.47440000      -2.90900000      -1.28160000
H       -0.82930000      -3.01290000       1.20790000
H        1.30160000      -1.40340000       2.90800000
H        2.16730000      -0.70050000       1.50910000
H       -0.81800000      -0.51050000       1.94750000
