19
Properties=species:S:1:pos:R:3 gdb_102331=T pbc="F F F"
C       -0.06540000       1.54260000       0.09320000
C        0.01950000       0.02200000      -0.02880000
C        0.75070000      -0.48610000      -1.31400000
C        0.74790000      -2.03690000      -1.28110000
O        1.40260000      -2.51990000      -2.43240000
C        0.03710000      -0.02110000      -2.51250000
C       -0.58800000       0.35860000      -3.46520000
C        2.13810000       0.00030000      -1.32560000
C        3.27080000       0.39800000      -1.28550000
H        0.93200000       1.98980000       0.11960000
H       -0.60970000       1.97360000      -0.75150000
H       -0.58830000       1.81940000       1.01340000
H        0.55050000      -0.39380000       0.83490000
H       -0.98750000      -0.40990000      -0.03380000
H        1.25560000      -2.35550000      -0.35840000
H       -0.29940000      -2.37130000      -1.23620000
H        1.39630000      -3.48080000      -2.40250000
H       -1.11910000       0.69120000      -4.32260000
H        4.27390000       0.74620000      -1.27600000
