21
Properties=species:S:1:pos:R:3 gdb_60136=T pbc="F F F"
C        0.09460000       1.42050000      -0.54310000
C       -0.04680000       0.01350000       0.04150000
C       -1.50270000      -0.41150000       0.18780000
O        0.57780000      -0.97110000      -0.78640000
C        1.96740000      -0.97050000      -0.78370000
C        2.67610000      -2.08750000      -1.58590000
C        2.26280000      -1.40580000      -2.91270000
C        2.80400000      -0.32810000      -1.94460000
O        3.89470000      -1.24740000      -1.55780000
H        1.14390000       1.71920000      -0.61870000
H       -0.35030000       1.46330000      -1.54260000
H       -0.41510000       2.15060000       0.09350000
H        0.43800000      -0.01090000       1.03140000
H       -1.99990000      -0.40730000      -0.78740000
H       -1.56640000      -1.42170000       0.60030000
H       -2.03880000       0.27280000       0.85180000
H        2.39770000      -0.79410000       0.20970000
H        2.78570000      -3.14570000      -1.34800000
H        2.90840000      -1.62580000      -3.76370000
H        1.20080000      -1.38240000      -3.15900000
H        3.07180000       0.71150000      -2.13610000
