19
Properties=species:S:1:pos:R:3 gdb_67474=T pbc="F F F"
O       -0.01890000       1.40230000      -0.03770000
C        0.00490000       0.01940000      -0.02110000
C       -1.17090000      -0.94040000       0.08080000
C       -0.66240000      -1.74360000      -1.11480000
C        0.64810000      -0.87420000      -1.09990000
O        1.86050000      -1.49510000      -0.71670000
C        1.71080000      -2.40890000       0.36170000
C        0.95680000      -1.82720000       1.57570000
C       -0.13250000      -0.83100000       1.20070000
H        0.76840000       1.72540000       0.41450000
H       -2.20770000      -0.70520000       0.28860000
H       -0.56170000      -2.82560000      -1.00710000
H       -1.24310000      -1.53940000      -2.01790000
H        0.84810000      -0.36090000      -2.04150000
H        1.21220000      -3.32250000       0.01040000
H        2.72700000      -2.69140000       0.65050000
H        0.55490000      -2.65480000       2.17310000
H        1.67080000      -1.29780000       2.21920000
H       -0.53980000      -0.27980000       2.04580000
