21
Properties=species:S:1:pos:R:3 gdb_82293=T pbc="F F F"
C       -0.78980000       1.51380000       0.15270000
C       -0.05200000       0.17880000       0.04810000
C       -1.04820000      -0.96380000      -0.22090000
C        1.02850000       0.16970000      -1.07930000
C        2.11830000      -0.75940000      -0.57190000
O        2.97800000      -0.14580000       0.40730000
C        1.92460000      -1.01080000       0.86410000
C        0.73650000      -0.17760000       1.36100000
O        1.18600000       0.94050000       2.10020000
H       -0.10030000       2.32540000       0.39400000
H       -1.29410000       1.75180000      -0.79060000
H       -1.54990000       1.48310000       0.94060000
H       -1.57790000      -0.80490000      -1.16610000
H       -0.54120000      -1.93400000      -0.28450000
H       -1.79520000      -1.02980000       0.57730000
H        0.61190000      -0.17760000      -2.03010000
H        1.44800000       1.16640000      -1.25320000
H        2.62150000      -1.46160000      -1.23130000
H        2.25410000      -1.90920000       1.37860000
H        0.09640000      -0.75350000       2.03700000
H        2.01610000       1.21060000       1.68320000
