20
Properties=species:S:1:pos:R:3 gdb_99909=T pbc="F F F"
C        0.94310000      -0.53230000       0.97240000
O        0.12670000      -0.43330000      -0.17910000
C       -1.24460000      -0.81090000      -0.04260000
C       -1.38500000      -2.31960000       0.24100000
C       -1.91240000      -0.02870000       1.01150000
C       -2.47220000       0.60130000       1.86890000
C       -1.89950000      -0.48030000      -1.39090000
C       -1.49730000       0.71460000      -2.16110000
N       -1.13930000      -0.64080000      -2.63330000
H        1.90740000      -0.09680000       0.70080000
H        0.52040000       0.02710000       1.81590000
H        1.10380000      -1.57380000       1.28040000
H       -0.96720000      -2.58580000       1.21440000
H       -2.44070000      -2.60250000       0.24210000
H       -0.86940000      -2.88490000      -0.54030000
H       -2.96810000       1.16450000       2.62090000
H       -2.93040000      -0.82110000      -1.44510000
H       -2.23040000       1.23560000      -2.76990000
H       -0.70800000       1.33260000      -1.74640000
H       -0.16590000      -0.80820000      -2.38520000
