21
Properties=species:S:1:pos:R:3 gdb_39171=T pbc="F F F"
C       -0.09160000       1.59850000       0.26530000
C        1.49350000       1.68860000      -0.08920000
C        2.00220000       2.35830000      -1.42090000
C        1.84560000       1.26090000      -2.56680000
C        0.66860000       0.52740000      -1.92690000
C        0.07480000      -0.81890000      -1.44100000
C        1.50230000      -1.23010000      -0.90580000
C        1.27460000       0.24530000      -0.50550000
C       -0.12140000       0.00380000      -0.03350000
H       -0.25500000       1.73770000       1.33800000
H       -0.75230000       2.28120000      -0.27250000
H        2.09460000       1.96430000       0.78160000
H        1.41560000       3.25010000      -1.66810000
H        3.04300000       2.68250000      -1.32020000
H        1.64250000       1.71440000      -3.54080000
H        2.75880000       0.66390000      -2.65080000
H       -0.13660000       1.26250000      -1.93540000
H       -0.62790000      -1.48090000      -1.95830000
H        1.53460000      -1.94440000      -0.07880000
H        2.23920000      -1.47760000      -1.67500000
H       -0.30270000      -0.61040000       0.85300000
