20
Properties=species:S:1:pos:R:3 gdb_88006=T pbc="F F F"
C        0.01810000       1.43380000      -0.28620000
C        0.10840000      -0.05110000      -0.03180000
N        1.46470000      -0.62100000       0.09650000
C        0.57480000      -0.60680000       1.25830000
C        0.94510000       0.03860000       2.60360000
C        0.65300000      -1.32870000       3.30960000
C        0.13020000      -1.86910000       1.97250000
C       -0.97050000      -2.78910000       1.68070000
O        0.39950000      -3.16620000       1.46320000
H        0.78450000       1.96750000       0.28170000
H        0.16870000       1.65690000      -1.34770000
H       -0.96450000       1.82120000       0.00500000
H       -0.62660000      -0.65260000      -0.56780000
H        1.48930000      -1.57000000      -0.27520000
H        1.97600000       0.39050000       2.66760000
H        0.27170000       0.84330000       2.90960000
H        1.55560000      -1.84970000       3.63750000
H       -0.06450000      -1.30760000       4.13280000
H       -1.47050000      -3.30870000       2.49760000
H       -1.56830000      -2.66090000       0.77920000
