18
Properties=species:S:1:pos:R:3 gdb_44101=T pbc="F F F"
O        0.02940000       0.02320000       0.23770000
C       -0.01740000       1.22390000       0.12140000
C       -1.27160000       2.13830000       0.07520000
C       -0.67540000       3.51240000      -0.01390000
C        0.65550000       3.40720000      -0.04950000
C        1.38210000       4.69930000      -0.23550000
C        0.21410000       5.72240000      -0.04910000
C       -1.13070000       4.93130000      -0.18350000
N        1.07850000       2.07450000       0.00710000
H       -1.88590000       1.85580000      -0.78890000
H       -1.88360000       1.95220000       0.96540000
H        2.19190000       4.86050000       0.48560000
H        1.83590000       4.76250000      -1.23410000
H        0.27760000       6.15680000       0.95230000
H        0.27990000       6.54840000      -0.76100000
H       -1.60220000       5.09820000      -1.16300000
H       -1.86290000       5.25730000       0.56510000
H        2.02510000       1.74120000       0.07960000
