21
Properties=species:S:1:pos:R:3 gdb_52874=T pbc="F F F"
C        0.11430000       1.45960000       0.27490000
C        0.09370000       0.00760000       0.17840000
C        0.05920000      -1.19430000       0.10050000
C        0.05020000      -2.63620000      -0.00480000
C       -0.80990000      -3.41190000       0.91360000
O       -1.20090000      -3.21250000      -0.44080000
C        1.28970000      -3.29190000      -0.61120000
C        1.47620000      -2.85820000      -2.07100000
C        2.53810000      -3.01260000       0.23540000
H        0.89940000       1.88950000      -0.35640000
H       -0.84160000       1.88700000      -0.04720000
H        0.29570000       1.78910000       1.30390000
H       -0.51880000      -4.42900000       1.17620000
H       -1.40740000      -2.88760000       1.65720000
H        1.08810000      -4.37010000      -0.59790000
H        1.66720000      -1.78210000      -2.13700000
H        2.32430000      -3.38160000      -2.52330000
H        0.58150000      -3.08150000      -2.65920000
H        2.41010000      -3.35960000       1.26600000
H        3.40950000      -3.52220000      -0.18740000
H        2.75570000      -1.94020000       0.26700000
