19
Properties=species:S:1:pos:R:3 gdb_39035=T pbc="F F F"
C        0.17880000       1.40240000      -0.42390000
C        1.41790000       2.01410000       0.29860000
C        2.16660000       0.78320000       0.70560000
C        3.41880000       0.32980000       0.77110000
C        3.44790000      -1.17650000       1.00800000
C        1.96840000      -1.56110000       1.08830000
O        1.28240000      -0.97340000       2.20370000
C        1.18520000      -0.32750000       0.91860000
C       -0.15210000       0.08360000       0.33330000
H       -0.67060000       2.08940000      -0.45550000
H        0.45120000       1.17160000      -1.45930000
H        1.98410000       2.70150000      -0.33480000
H        1.08880000       2.57660000       1.18320000
H        4.32570000       0.91360000       0.65880000
H        3.94870000      -1.69880000       0.18230000
H        3.97830000      -1.45470000       1.92720000
H        1.62750000      -2.55220000       0.80050000
H       -0.84890000       0.27080000       1.15770000
H       -0.60750000      -0.66980000      -0.31440000
