21
Properties=species:S:1:pos:R:3 gdb_41510=T pbc="F F F"
C        0.05140000       1.57130000       0.14310000
C        1.55210000       1.98580000      -0.03350000
C        2.17900000       0.75930000       0.58300000
C        2.66750000       0.68780000       1.82390000
C        2.36990000      -0.54820000       2.64160000
C        0.83710000      -0.79490000       2.48420000
C        0.49800000      -0.98890000       1.00360000
C        0.04280000       0.03910000      -0.04760000
C        1.47320000      -0.43640000      -0.00290000
H       -0.30400000       1.87110000       1.13530000
H       -0.59830000       2.05060000      -0.59540000
H        1.77880000       2.09270000      -1.10130000
H        1.80760000       2.91990000       0.47440000
H        3.01380000       1.58240000       2.33660000
H        2.91150000      -1.43550000       2.29320000
H        2.63820000      -0.40120000       3.69210000
H        0.53070000      -1.68470000       3.04540000
H        0.29830000       0.05270000       2.92270000
H        0.11540000      -1.98080000       0.77350000
H       -0.64510000      -0.35520000      -0.78880000
H        1.94430000      -1.05350000      -0.76080000
