19
Properties=species:S:1:pos:R:3 gdb_116763=T pbc="F F F"
C       -0.10040000       1.39920000      -0.05090000
O       -0.01400000      -0.02030000       0.03790000
C        0.54750000      -0.63780000      -1.01320000
N        0.68330000      -1.89020000      -1.02470000
C        1.29660000      -2.48290000      -2.19250000
C        2.50340000      -3.35900000      -1.76610000
C        2.08670000      -4.52710000      -0.85410000
C        3.20540000      -3.84150000      -2.95890000
N        3.74640000      -4.21960000      -3.90790000
H        0.89400000       1.85750000      -0.10520000
H       -0.69270000       1.71040000      -0.91930000
H       -0.59870000       1.73200000       0.85980000
H        0.85700000       0.03290000      -1.83080000
H        0.56470000      -3.13060000      -2.69140000
H        1.63290000      -1.73780000      -2.93160000
H        3.20090000      -2.71270000      -1.21840000
H        2.96010000      -5.08940000      -0.51550000
H        1.55410000      -4.12890000       0.01090000
H        1.42270000      -5.21360000      -1.38760000
