17
Properties=species:S:1:pos:R:3 gdb_55387=T pbc="F F F"
N       -0.04030000       1.32700000      -0.04500000
C       -0.08030000       0.04490000      -0.05560000
N       -1.13320000      -0.81430000      -0.09620000
H       -2.08250000      -0.49830000       0.01860000
C       -0.76040000      -2.22370000       0.00100000
C        0.72700000      -2.20540000      -0.40550000
C        1.19250000      -0.78940000      -0.02780000
C        2.34800000      -0.24240000      -0.88320000
O        2.44170000       1.08220000      -0.93150000
O        3.12880000      -0.98250000      -1.42480000
H        1.60530000       1.47980000      -0.55280000
H       -0.95200000       1.77750000      -0.07200000
H       -0.89760000      -2.60140000       1.02400000
H       -1.37210000      -2.83600000      -0.66780000
H        1.30280000      -2.98940000       0.08570000
H        0.83510000      -2.34420000      -1.48370000
H        1.55730000      -0.76570000       1.00870000
