16
Properties=species:S:1:pos:R:3 gdb_22185=T pbc="F F F"
O       -0.14700000       1.56530000      -0.63350000
N        0.07300000       0.19900000      -0.43470000
C       -0.98790000      -0.42310000      -0.08660000
C       -0.85180000      -1.89990000       0.18090000
C        0.58680000      -2.35970000       0.35550000
O        1.06240000      -3.30210000      -0.21910000
C       -2.34420000       0.22310000       0.09870000
C       -2.44980000       0.75250000       1.52440000
O       -3.12630000       0.24450000       2.37950000
H        0.71440000       1.87220000      -0.93750000
H       -1.39590000      -2.13530000       1.10880000
H       -1.31780000      -2.48830000      -0.61750000
H        1.17040000      -1.76930000       1.09240000
H       -2.44060000       1.05830000      -0.60100000
H       -3.14140000      -0.50600000      -0.05980000
H       -1.81680000       1.64100000       1.72900000
