20
Properties=species:S:1:pos:R:3 gdb_71893=T pbc="F F F"
C        0.01760000       1.53030000       0.11240000
C       -0.01130000       0.04080000      -0.02270000
C        0.59970000      -0.85450000      -1.15840000
C        1.42790000      -1.52510000      -0.04920000
N        0.64180000      -0.85360000       1.04090000
C       -0.67540000      -1.55500000       1.23340000
C       -1.27630000      -0.87970000      -0.01630000
O       -2.56620000      -0.34380000       0.03730000
C       -0.79050000      -1.52380000      -1.34060000
H        1.04760000       1.90280000       0.12180000
H       -0.51400000       2.00460000      -0.71940000
H       -0.46510000       1.84320000       1.04400000
H        1.10630000      -0.48170000      -2.05000000
H        1.43330000      -2.62060000      -0.00520000
H        2.46380000      -1.17200000      -0.01990000
H       -0.61690000      -2.64940000       1.26450000
H       -1.15440000      -1.19410000       2.14950000
H       -3.20060000      -1.05260000      -0.11760000
H       -1.32880000      -1.06630000      -2.17630000
H       -0.82840000      -2.61450000      -1.43630000
