15
Properties=species:S:1:pos:R:3 gdb_27353=T pbc="F F F"
C        0.12070000       1.47690000       0.00450000
C       -0.04300000      -0.00590000      -0.01680000
C       -1.18000000      -0.70640000      -0.12380000
C       -1.20080000      -2.18090000      -0.13300000
O       -2.23650000      -2.82450000      -0.23070000
C        0.12410000      -2.77720000      -0.01500000
C        1.21260000      -1.99170000       0.08770000
O        2.46460000      -2.45050000       0.19950000
O        1.17540000      -0.64030000       0.09100000
H        0.75840000       1.80900000      -0.82200000
H       -0.85060000       1.96520000      -0.08310000
H        0.59650000       1.80210000       0.93620000
H       -2.12670000      -0.18750000      -0.20760000
H        0.23650000      -3.85250000      -0.00950000
H        3.06300000      -1.69500000       0.26140000
