19
Properties=species:S:1:pos:R:3 gdb_74451=T pbc="F F F"
C       -0.10820000       1.52000000       0.01480000
C       -0.01140000       0.02840000      -0.03550000
C       -0.09880000      -0.74830000      -1.12140000
C        0.04890000      -2.21220000      -0.81700000
O       -0.95540000      -3.03840000      -1.35100000
C        1.46100000      -2.80570000      -0.98100000
O        1.76600000      -2.54220000       0.40500000
C        0.38920000      -2.21420000       0.70830000
C        0.22050000      -0.78550000       1.22710000
H        0.82120000       1.95980000       0.39780000
H       -0.30840000       1.94950000      -0.97020000
H       -0.90530000       1.83830000       0.69890000
H       -0.25080000      -0.38910000      -2.13470000
H       -1.79100000      -2.56280000      -1.29260000
H        1.43640000      -3.88050000      -1.20300000
H        2.15170000      -2.29800000      -1.66290000
H       -0.08690000      -2.98970000       1.31800000
H        1.12740000      -0.47170000       1.75800000
H       -0.61420000      -0.67820000       1.93360000
