19
Properties=species:S:1:pos:R:3 gdb_116144=T pbc="F F F"
N       -0.08230000       1.32490000      -0.12350000
C       -0.11220000      -0.04940000      -0.00660000
N       -1.22070000      -0.67830000      -0.01360000
C       -1.20650000      -2.14130000      -0.03860000
C       -2.34070000      -2.58400000      -0.97580000
O       -3.55780000      -1.97670000      -0.60720000
C        0.15100000      -2.71110000      -0.43440000
O        1.18230000      -2.08330000       0.31970000
C        1.25630000      -0.71060000       0.03500000
H        0.67670000       1.80900000       0.33170000
H       -0.98300000       1.76800000      -0.00770000
H       -1.46090000      -2.49230000       0.97170000
H       -2.06310000      -2.33380000      -2.01500000
H       -2.48120000      -3.66970000      -0.92050000
H       -3.31550000      -1.06130000      -0.40420000
H        0.21800000      -3.77990000      -0.21480000
H        0.32980000      -2.56700000      -1.51350000
H        1.76220000      -0.52310000      -0.92880000
H        1.87110000      -0.25460000       0.82030000
