16
Properties=species:S:1:pos:R:3 gdb_48570=T pbc="F F F"
O       -0.02370000       0.00910000       0.00270000
C        0.04640000       1.21220000       0.00680000
C        1.32940000       1.96980000      -0.00040000
C        2.76900000       1.38930000      -0.01910000
C        2.93600000       2.94470000      -0.00830000
C        1.79740000       3.01160000      -1.07420000
C        1.81860000       2.99430000       1.08080000
C        4.17130000       3.68710000      -0.01440000
N        5.16170000       4.28390000      -0.01940000
H       -0.86900000       1.84700000       0.01660000
H        3.09660000       0.86270000       0.87840000
H        3.07880000       0.87730000      -0.93120000
H        2.03460000       2.61310000      -2.06230000
H        1.24390000       3.95110000      -1.12920000
H        1.26640000       3.93260000       1.16180000
H        2.07510000       2.57980000       2.05740000
