18
Properties=species:S:1:pos:R:3 gdb_8062=T pbc="F F F"
C        0.05730000       1.45340000       0.08160000
C       -0.03910000      -0.03450000      -0.05210000
C        0.57450000      -0.97730000      -1.12280000
C        0.01050000      -1.82820000       0.03290000
O        0.61620000      -0.88070000       0.99320000
C       -1.28760000      -0.97260000       0.02250000
C       -2.16260000      -0.94120000       1.26180000
O       -3.00930000      -2.08350000       1.34570000
H        1.10500000       1.76890000       0.08510000
H       -0.44870000       1.94110000      -0.75760000
H       -0.40960000       1.79240000       1.01120000
H        0.08640000      -1.03530000      -2.09920000
H        1.66330000      -0.95180000      -1.18520000
H        0.14420000      -2.89240000       0.23190000
H       -1.88790000      -1.03980000      -0.89060000
H       -1.53500000      -0.83140000       2.15440000
H       -2.83920000      -0.08050000       1.21600000
H       -2.44970000      -2.84610000       1.52210000
