20
Properties=species:S:1:pos:R:3 gdb_113754=T pbc="F F F"
C        0.42920000       1.38530000       0.16500000
C       -0.13470000      -0.04100000       0.04230000
C       -1.65220000      -0.00910000       0.04670000
O       -2.35400000      -0.58390000       0.83720000
C        0.35130000      -0.69280000      -1.24530000
N        1.69540000      -1.29140000      -1.21770000
C        0.51920000      -2.15700000      -1.45420000
C        0.29070000      -3.22230000      -0.40540000
O        1.29600000      -4.21930000      -0.48120000
H        1.52090000       1.35460000       0.11280000
H        0.06770000       2.02690000      -0.64720000
H        0.14070000       1.84620000       1.11390000
H        0.18430000      -0.63790000       0.89900000
H       -2.09770000       0.61140000      -0.76870000
H        0.08870000      -0.12510000      -2.13920000
H        2.18790000      -1.10770000      -2.08720000
H        0.37680000      -2.51230000      -2.47370000
H        0.24550000      -2.77690000       0.59690000
H       -0.66330000      -3.72850000      -0.58460000
H        2.13530000      -3.75870000      -0.36510000
