10
Properties=species:S:1:pos:R:3 gdb_2501=T pbc="F F F"
O       -0.21940000      -0.04770000       0.00330000
C       -0.11570000       1.14140000       0.00840000
N        1.13000000       1.84670000       0.00130000
C        1.09870000       3.25340000       0.00910000
O        0.09600000       3.91350000       0.02140000
C        2.39700000       1.21330000      -0.01340000
O        2.59140000       0.03580000      -0.02250000
H       -0.95040000       1.85710000       0.01870000
H        2.11430000       3.68830000       0.00260000
H        3.20660000       1.96890000      -0.01650000
