20
Properties=species:S:1:pos:R:3 gdb_97204=T pbc="F F F"
C       -0.20280000       1.45480000      -0.03850000
N       -0.11010000       0.00430000      -0.05940000
C        0.64060000      -0.56820000      -0.89640000
C        0.66550000      -2.08200000      -0.97630000
O        1.91370000      -2.60680000      -1.39090000
C        2.33170000      -1.99780000      -2.59510000
C        2.55870000      -0.50970000      -2.37390000
C        2.91640000       0.24820000      -3.64040000
O        1.36610000       0.10660000      -1.83910000
H        0.63750000       1.96340000      -0.52380000
H       -1.12690000       1.77000000      -0.53940000
H       -0.27510000       1.78750000       1.00170000
H        0.43920000      -2.49140000       0.00780000
H       -0.12690000      -2.40110000      -1.67630000
H        3.26530000      -2.48240000      -2.89500000
H        1.58420000      -2.15080000      -3.39280000
H        3.35310000      -0.39490000      -1.62330000
H        2.13710000       0.12500000      -4.39860000
H        3.02000000       1.31470000      -3.42610000
H        3.86390000      -0.11630000      -4.04870000
