21
Properties=species:S:1:pos:R:3 gdb_67451=T pbc="F F F"
C       -0.04020000       1.51800000       0.04440000
C        0.02940000       0.01270000      -0.00950000
C        0.62790000      -0.84960000      -1.18720000
C        1.50080000      -1.61030000      -0.15140000
C        0.85440000      -0.81040000       1.02250000
C       -0.19480000      -1.54000000       1.84990000
O       -1.31000000      -1.75630000       0.98520000
C       -1.27560000      -0.83860000      -0.10160000
C       -0.76730000      -1.47050000      -1.42870000
H        0.95930000       1.96600000       0.00670000
H       -0.61590000       1.92380000      -0.79540000
H       -0.52250000       1.85840000       0.96910000
H        1.14670000      -0.41790000      -2.04430000
H        1.37250000      -2.69710000      -0.12090000
H        2.56630000      -1.39380000      -0.26050000
H        1.56200000      -0.25140000       1.63890000
H        0.14110000      -2.51520000       2.22090000
H       -0.49660000      -0.93170000       2.71790000
H       -2.22890000      -0.30180000      -0.15320000
H       -1.26130000      -1.02640000      -2.29830000
H       -0.84180000      -2.55950000      -1.49170000
