22
Properties=species:S:1:pos:R:3 gdb_101596=T pbc="F F F"
C       -1.56240000       1.43260000       0.81940000
O       -1.62220000       0.00620000       0.84120000
C       -1.07030000      -0.63240000      -0.21140000
N       -0.51680000       0.01620000      -1.15350000
C       -1.23770000      -2.12740000      -0.06010000
C       -2.70940000      -2.58210000      -0.16330000
C       -3.30040000      -2.31490000      -1.55220000
C       -2.82110000      -4.05950000       0.21440000
O       -4.19520000      -4.41520000       0.22180000
H       -2.06050000       1.76370000       1.73180000
H       -0.52470000       1.77710000       0.80080000
H       -2.07130000       1.82930000      -0.06330000
H       -0.15990000      -0.62160000      -1.86130000
H       -0.63420000      -2.62730000      -0.82570000
H       -0.83610000      -2.41650000       0.91860000
H       -3.28510000      -2.01700000       0.57910000
H       -2.73820000      -2.85510000      -2.32480000
H       -4.33750000      -2.65310000      -1.59390000
H       -3.26840000      -1.25050000      -1.80180000
H       -2.25600000      -4.66980000      -0.51120000
H       -2.36590000      -4.22160000       1.20490000
H       -4.26290000      -5.35720000       0.40080000
