18
Properties=species:S:1:pos:R:3 gdb_77259=T pbc="F F F"
C       -0.06440000       1.58380000       0.22390000
C       -0.00980000       0.08390000       0.04180000
C        0.48680000      -0.58170000      -1.21260000
C        0.98620000       0.19030000      -2.42060000
C        1.91870000      -0.65620000      -3.26930000
O        1.73950000      -0.90480000      -4.43270000
C        1.31150000      -0.68360000       0.07570000
C        2.54900000       0.03460000       0.18160000
N        3.54550000       0.61950000       0.25390000
H        0.81360000       2.08710000      -0.18670000
H       -0.95380000       1.99670000      -0.26270000
H       -0.11540000       1.83560000       1.28760000
H       -0.81670000      -0.44750000       0.53890000
H       -0.01570000      -1.50990000      -1.47140000
H        0.15000000       0.51570000      -3.04630000
H        1.54680000       1.07760000      -2.10370000
H        2.80650000      -1.04830000      -2.72450000
H        1.31970000      -1.64250000       0.58250000
