16
Properties=species:S:1:pos:R:3 gdb_110169=T pbc="F F F"
C       -0.29780000       1.33490000      -0.05980000
O        0.31330000       0.06100000       0.09810000
C        0.76190000      -0.47590000      -1.10420000
C        1.34030000      -1.92530000      -0.94820000
N        0.31360000      -2.35050000      -1.91520000
C       -0.31160000      -1.13460000      -2.02910000
O       -1.30520000      -0.76800000      -2.59700000
C        2.72030000      -2.15780000      -1.33810000
C        3.86330000      -2.35270000      -1.65370000
H        0.41430000       2.06590000      -0.47100000
H       -1.17160000       1.28090000      -0.71910000
H       -0.60800000       1.65910000       0.93540000
H        1.43530000       0.20430000      -1.64440000
H        1.15130000      -2.29620000       0.06480000
H        0.09470000      -3.26420000      -2.28510000
H        4.87410000      -2.52320000      -1.93270000
