18
Properties=species:S:1:pos:R:3 gdb_43734=T pbc="F F F"
N        0.27320000       1.13530000       0.70460000
C        0.07790000       0.04910000       0.11030000
C       -1.14510000      -0.76020000      -0.25810000
C       -0.12630000      -1.74190000      -0.87640000
C        0.05690000      -3.16520000      -0.31730000
C        0.19920000      -4.03920000      -1.58220000
O        0.58780000      -3.14790000      -2.61950000
C       -0.13700000      -1.95630000      -2.39250000
O        0.96780000      -0.84220000      -0.44990000
H        1.26970000       1.35460000       0.75580000
H       -1.72010000      -1.13760000       0.58910000
H       -1.81970000      -0.27070000      -0.96410000
H        0.96520000      -3.18280000       0.28880000
H       -0.78030000      -3.47440000       0.31280000
H        0.96440000      -4.81370000      -1.49950000
H       -0.75950000      -4.52230000      -1.83160000
H       -1.18170000      -2.05630000      -2.73730000
H        0.34190000      -1.13870000      -2.93530000
