16
Properties=species:S:1:pos:R:3 gdb_99249=T pbc="F F F"
N       -0.11630000       0.95230000       0.42870000
C       -0.18250000      -0.36360000       0.06730000
O        0.67150000      -1.17900000       0.33420000
C       -1.41600000      -0.70860000      -0.78300000
O       -1.52600000      -2.11080000      -0.95600000
C       -1.95730000      -2.78880000       0.13870000
O       -2.36770000      -2.26710000       1.13670000
C       -1.82410000      -4.27660000      -0.12060000
O       -2.48620000      -4.97820000       0.89990000
H        0.61680000       1.21140000       1.07040000
H       -0.93650000       1.53540000       0.40940000
H       -2.32280000      -0.30480000      -0.32190000
H       -1.29910000      -0.28860000      -1.78530000
H       -2.22790000      -4.48650000      -1.12290000
H       -0.74370000      -4.48690000      -0.15870000
H       -2.26800000      -5.90970000       0.80680000
