13
Properties=species:S:1:pos:R:3 gdb_25992=T pbc="F F F"
N       -0.21190000       1.28530000       0.17700000
C       -0.07940000       0.00360000      -0.23770000
O        0.49430000      -0.40080000      -1.20870000
O       -0.76280000      -0.81870000       0.66280000
C       -0.76640000      -2.13510000       0.38780000
N       -0.13710000      -3.06190000       1.02190000
C       -0.56340000      -4.22880000       0.39120000
C       -1.43430000      -3.91420000      -0.59350000
O       -1.58130000      -2.54970000      -0.60120000
H        0.34600000       1.97940000      -0.28810000
H       -0.58030000       1.48260000       1.09110000
H       -0.20610000      -5.19880000       0.69690000
H       -1.99860000      -4.46170000      -1.32750000
