10
Properties=species:S:1:pos:R:3 gdb_908=T pbc="F F F"
N       -0.07780000       1.30260000      -0.10730000
C       -0.01230000       0.04440000       0.04450000
N        1.22340000      -0.65770000       0.12970000
C        1.17940000      -1.91220000       0.28110000
O        0.04820000      -2.67330000       0.37250000
C       -1.11540000      -1.95150000       0.28490000
N       -1.21050000      -0.70160000       0.13400000
H        0.87300000       1.67360000      -0.15170000
H        2.06930000      -2.53040000       0.35610000
H       -1.97860000      -2.60550000       0.36350000
