15
Properties=species:S:1:pos:R:3 gdb_22055=T pbc="F F F"
C       -0.03470000       1.48180000      -0.00370000
C        0.02190000      -0.02490000       0.04380000
N        0.09220000      -0.71590000       1.13120000
O        0.10860000       0.11330000       2.24460000
C       -0.00180000      -0.76760000      -1.16820000
C       -0.02560000      -1.33670000      -2.23360000
C       -0.05690000      -1.97570000      -3.54080000
N       -0.00560000      -3.33780000      -3.48630000
O       -0.12310000      -1.34440000      -4.57830000
H        0.85050000       1.90540000       0.48090000
H       -0.09040000       1.83610000      -1.03250000
H       -0.90480000       1.84180000       0.55410000
H        0.16180000      -0.51620000       2.97260000
H        0.05130000      -3.83020000      -2.61220000
H       -0.02110000      -3.85210000      -4.35150000
