21
Properties=species:S:1:pos:R:3 gdb_80391=T pbc="F F F"
C        0.16760000       1.62170000      -0.41930000
C        0.24240000       0.13030000      -0.16860000
C        1.50510000      -0.68100000      -0.28800000
O        2.62750000       0.04800000       0.21790000
C        2.10610000      -0.04270000       1.59410000
C        2.90030000      -1.10250000       2.35240000
C        2.12000000       1.29020000       2.32760000
C        0.79170000      -0.62300000       1.03790000
O        0.07290000      -1.61640000       1.68060000
H        1.15520000       2.07790000      -0.32970000
H       -0.19280000       1.80900000      -1.43650000
H       -0.51670000       2.12760000       0.27060000
H       -0.60710000      -0.43660000      -0.55060000
H        1.69060000      -1.47780000      -0.99900000
H        3.93160000      -0.76370000       2.48970000
H        2.45880000      -1.28680000       3.33650000
H        2.91160000      -2.04650000       1.80290000
H        1.53500000       2.05410000       1.81640000
H        1.71370000       1.16280000       3.33690000
H        3.14840000       1.65340000       2.42720000
H       -0.69640000      -1.21270000       2.09650000
