20
Properties=species:S:1:pos:R:3 gdb_37062=T pbc="F F F"
C       -0.04400000       1.56630000       0.02410000
C        1.46230000       1.95120000      -0.03690000
C        2.11300000       0.79960000      -0.77870000
C        3.53280000       0.27690000      -0.58430000
C        3.31960000      -1.22880000      -0.49650000
C        2.03080000      -1.57600000      -0.57880000
C        1.18210000      -0.36330000      -0.76970000
C       -0.09030000       0.01200000      -0.03630000
N        1.49050000       0.35050000      -2.04130000
H       -0.53380000       1.95940000       0.91860000
H       -0.58100000       1.99540000      -0.82810000
H        1.61870000       2.93030000      -0.50430000
H        1.88710000       2.00800000       0.97290000
H        4.19200000       0.54380000      -1.41840000
H        3.99500000       0.67540000       0.32900000
H        4.14840000      -1.92430000      -0.41260000
H        1.64740000      -2.58930000      -0.54860000
H       -0.05720000      -0.41550000       0.97300000
H       -1.00740000      -0.35490000      -0.51050000
H        0.72350000       0.97310000      -2.28960000
