19
Properties=species:S:1:pos:R:3 gdb_91244=T pbc="F F F"
O       -0.63380000       1.34100000      -0.24010000
C       -0.06840000       0.05220000      -0.00130000
C       -1.24870000      -0.91910000       0.15140000
C       -1.68300000      -1.27040000      -1.28540000
C       -2.53880000      -0.20550000      -2.04440000
C       -1.27990000       0.18800000      -2.83200000
O       -1.02970000       1.03030000      -3.64520000
C       -0.43730000      -0.93090000      -2.18350000
C        0.68390000      -0.46750000      -1.23990000
H        0.06160000       1.92750000      -0.55540000
H        0.57040000       0.07670000       0.89250000
H       -0.90490000      -1.82150000       0.66850000
H       -2.04730000      -0.47470000       0.75170000
H       -2.07340000      -2.28540000      -1.36240000
H       -3.31540000      -0.63080000      -2.68920000
H       -2.97520000       0.59740000      -1.44700000
H       -0.11170000      -1.68420000      -2.90560000
H        1.32860000       0.29600000      -1.68960000
H        1.32300000      -1.31340000      -0.96110000
