19
Properties=species:S:1:pos:R:3 gdb_51948=T pbc="F F F"
O       -0.28620000      -0.00190000      -0.18020000
C       -0.02260000       1.16830000      -0.08220000
C        1.35690000       1.76690000      -0.20940000
C        1.39990000       2.88130000      -1.25980000
C        2.63010000       3.77600000      -1.13610000
O        3.38590000       3.69570000      -0.18990000
C        2.83750000       4.76220000      -2.23290000
C        3.48850000       6.08950000      -1.86760000
C        4.27700000       5.07850000      -2.62260000
H       -0.82470000       1.91930000       0.12100000
H        1.63570000       2.20290000       0.75910000
H        2.07420000       0.97380000      -0.43260000
H        1.35650000       2.47420000      -2.27750000
H        0.51900000       3.53630000      -1.17290000
H        2.09530000       4.76880000      -3.02320000
H        3.12950000       6.97150000      -2.38500000
H        3.72030000       6.22050000      -0.81700000
H        5.03820000       4.53050000      -2.07950000
H        4.47590000       5.24270000      -3.67520000
