17
Properties=species:S:1:pos:R:3 gdb_18673=T pbc="F F F"
O       -0.18740000       0.32130000       0.99830000
C       -0.12030000       1.26130000       0.24060000
C       -1.33680000       1.84280000      -0.48280000
C       -1.23920000       3.36640000      -0.75310000
C       -0.19880000       4.01500000       0.18070000
C        1.13250000       3.34920000      -0.09810000
C        1.88710000       2.56110000       0.93020000
N        1.08740000       1.89020000      -0.08220000
H       -1.47210000       1.28940000      -1.41910000
H       -2.19680000       1.59900000       0.14580000
H       -0.93890000       3.54880000      -1.79110000
H       -2.22060000       3.83320000      -0.62660000
H       -0.13720000       5.09490000       0.01770000
H       -0.49020000       3.85860000       1.22690000
H        1.69850000       3.76370000      -0.93160000
H        2.96280000       2.44300000       0.83760000
H        1.50700000       2.54260000       1.94850000
