22
Properties=species:S:1:pos:R:3 gdb_119486=T pbc="F F F"
C       -0.10880000       1.49820000       0.04750000
C        0.09700000      -0.01850000       0.04050000
C        0.71220000      -0.52550000      -1.27240000
C        0.86210000      -2.02150000      -1.34770000
C        0.54880000      -2.82050000      -2.55170000
N       -0.33940000      -2.93720000      -1.37080000
C        0.33690000      -3.76010000      -0.29050000
C        1.71590000      -4.29260000      -0.55690000
C        1.53030000      -2.83860000      -0.21310000
H        0.84020000       2.02980000      -0.08670000
H       -0.77810000       1.81050000      -0.76200000
H       -0.54850000       1.83640000       0.99100000
H        0.73640000      -0.30170000       0.88550000
H       -0.86100000      -0.52840000       0.19370000
H        0.08620000      -0.19690000      -2.11120000
H        1.69910000      -0.06330000      -1.42330000
H        0.05790000      -2.29640000      -3.36730000
H        1.15400000      -3.65770000      -2.87860000
H       -0.30550000      -4.15450000       0.48640000
H        2.09940000      -4.88270000       0.27090000
H        2.06570000      -4.64140000      -1.52180000
H        1.99030000      -2.37840000       0.65090000
