17
Properties=species:S:1:pos:R:3 gdb_37451=T pbc="F F F"
C       -0.01450000       1.55070000       0.02260000
O        1.31820000       2.08350000       0.02610000
C        2.29900000       1.06260000       0.00720000
C        2.07340000       0.13830000       1.21680000
O        0.76630000      -0.44770000       1.13260000
C        0.04510000       0.02380000      -0.01670000
C        0.81420000      -0.43190000      -1.25580000
O        1.17660000       0.58760000      -2.19760000
C        2.14650000       0.17890000      -1.23960000
H       -0.52550000       1.86780000       0.94010000
H       -0.55200000       1.94570000      -0.84580000
H        3.27120000       1.55760000       0.06130000
H        2.82480000      -0.66260000       1.25050000
H        2.14380000       0.72180000       2.14260000
H       -0.95270000      -0.41300000       0.05800000
H        0.62450000      -1.41650000      -1.67360000
H        3.02430000      -0.32850000      -1.63320000
