14
Properties=species:S:1:pos:R:3 gdb_13846=T pbc="F F F"
N        0.31460000       0.44020000       0.90980000
C       -0.10840000       0.21780000      -0.35820000
O        0.47380000       0.59020000      -1.35940000
C       -1.45890000      -0.51560000      -0.44570000
C       -1.55490000      -1.42950000      -1.68940000
O       -1.74100000      -2.75590000      -1.12270000
C       -1.79960000      -2.57780000       0.20930000
N       -1.68490000      -1.41350000       0.70430000
H        1.21540000       0.86730000       1.04970000
H       -0.14090000      -0.04360000       1.66770000
H       -2.22910000       0.26420000      -0.45410000
H       -2.41470000      -1.21530000      -2.32720000
H       -0.64150000      -1.41530000      -2.28570000
H       -1.94510000      -3.48800000       0.78070000
