15
Properties=species:S:1:pos:R:3 gdb_42308=T pbc="F F F"
O        1.16620000       2.63440000       1.30310000
C        0.25550000       2.09560000       0.73110000
C        0.50340000       0.91980000      -0.13840000
N        0.75070000      -0.01880000      -0.76710000
C       -1.21400000       2.51950000       0.82400000
N       -1.84700000       2.42970000      -0.48790000
C       -3.08030000       1.62730000      -0.41270000
C       -3.03150000       1.05690000       0.97720000
C       -2.00810000       1.54670000       1.66970000
H       -1.20220000       3.52920000       1.26060000
H       -1.97240000       3.32820000      -0.92900000
H       -3.99010000       2.22920000      -0.56590000
H       -3.08840000       0.84020000      -1.17930000
H       -3.76110000       0.34490000       1.34220000
H       -1.73750000       1.31390000       2.69130000
