20
Properties=species:S:1:pos:R:3 gdb_40705=T pbc="F F F"
C        0.00090000       1.47610000      -0.05910000
O        1.20630000       0.71200000      -0.00050000
C       -0.04480000       0.00940000      -0.01120000
C       -0.40130000      -0.72230000       1.23720000
C       -1.64700000      -1.58510000       1.27990000
C       -0.28870000      -2.22850000       1.30730000
N        0.12760000      -2.92840000       0.12490000
C        1.45120000      -3.54360000       0.16190000
C        0.22150000      -4.38190000       0.22490000
H       -0.23340000       2.04960000       0.83780000
H       -0.18170000       1.99670000      -0.99870000
H       -0.24110000      -0.53230000      -0.93460000
H       -0.14650000      -0.18440000       2.14560000
H       -2.24930000      -1.58280000       2.18120000
H       -2.20660000      -1.69100000       0.35670000
H        0.04830000      -2.64480000       2.26110000
H        2.02900000      -3.47530000      -0.75500000
H        2.03310000      -3.44100000       1.07600000
H       -0.02080000      -4.84140000       1.18160000
H       -0.11450000      -4.93830000      -0.64550000
