20
Properties=species:S:1:pos:R:3 gdb_15634=T pbc="F F F"
C        0.02440000       1.47390000       0.32010000
C       -0.03910000       0.00170000      -0.12210000
C       -1.42600000      -0.56740000      -0.10580000
C       -2.12380000      -1.06390000      -1.12900000
C       -3.50170000      -1.53580000      -0.73150000
C       -3.41870000      -1.55200000       0.81410000
C       -2.24950000      -0.60360000       1.16790000
O       -1.43990000      -1.05200000       2.25260000
H        1.05240000       1.84640000       0.27700000
H       -0.59310000       2.10870000      -0.32380000
H       -0.32750000       1.58740000       1.34980000
H        0.38420000      -0.10420000      -1.12720000
H        0.59000000      -0.59020000       0.55430000
H       -1.76640000      -1.10380000      -2.15330000
H       -4.27400000      -0.83880000      -1.08650000
H       -3.75880000      -2.51450000      -1.15270000
H       -4.35950000      -1.28050000       1.30180000
H       -3.13310000      -2.55040000       1.16140000
H       -2.62330000       0.41020000       1.39440000
H       -1.94970000      -0.95560000       3.06260000
