23
Properties=species:S:1:pos:R:3 gdb_59042=T pbc="F F F"
C       -0.04930000       1.55800000       0.25060000
C       -0.02310000       0.03370000       0.03990000
C        0.88520000      -0.64740000       1.08430000
C       -1.41160000      -0.55780000       0.04220000
C       -1.91540000      -1.40990000      -0.85360000
C       -3.35200000      -1.78320000      -0.58370000
C       -3.57170000      -1.25120000       0.85180000
C       -2.47510000      -0.18140000       1.06080000
O       -1.93690000      -0.16300000       2.38310000
H        0.96300000       1.97020000       0.18740000
H       -0.66390000       2.05720000      -0.50590000
H       -0.45160000       1.80350000       1.23810000
H        0.40760000      -0.16400000      -0.95080000
H        1.89690000      -0.22900000       1.03980000
H        0.49000000      -0.50220000       2.09200000
H        0.95320000      -1.72360000       0.89810000
H       -1.37370000      -1.77430000      -1.72130000
H       -4.02510000      -1.29410000      -1.30220000
H       -3.54220000      -2.85900000      -0.67270000
H       -4.58320000      -0.87230000       1.02510000
H       -3.37930000      -2.04760000       1.57810000
H       -2.85980000       0.82520000       0.82200000
H       -2.61460000       0.18190000       2.97270000
