19
Properties=species:S:1:pos:R:3 gdb_19610=T pbc="F F F"
C       -0.17890000       1.57790000      -0.33260000
C        0.13110000       0.08570000      -0.29100000
C        0.91460000      -0.64530000      -1.36770000
C        2.35780000      -0.75780000      -0.97480000
C        2.58780000      -0.10570000       0.37780000
C        3.08790000       1.32340000       0.55660000
C        1.14430000      -0.59000000       0.66760000
N        1.34900000      -1.71670000      -0.40720000
H        0.67550000       2.18470000      -0.63560000
H       -0.98790000       1.77300000      -1.04510000
H       -0.51570000       1.93410000       0.64740000
H       -0.80980000      -0.46390000      -0.16250000
H        0.58470000      -0.90140000      -2.36950000
H        3.10670000      -1.09820000      -1.68290000
H        3.24490000      -0.77980000       0.94130000
H        2.60090000       2.03470000      -0.11190000
H        2.93190000       1.66570000       1.58570000
H        4.16420000       1.37160000       0.35760000
H        0.84760000      -0.86330000       1.67950000
