18
Properties=species:S:1:pos:R:3 gdb_39176=T pbc="F F F"
C        0.29960000       1.82210000       0.82890000
C        1.55310000       1.43820000      -0.01810000
C        1.76190000       1.97740000      -1.42630000
O        0.73260000       1.59320000      -2.34070000
C        0.75460000       0.32010000      -2.84300000
C        0.96140000      -0.84800000      -2.22790000
C        1.14840000      -1.13640000      -0.75140000
C        0.87560000       0.09270000       0.04190000
N       -0.13190000       0.38540000       0.78650000
H        0.47860000       2.20900000       1.83680000
H       -0.42010000       2.46330000       0.31160000
H        2.49320000       1.50520000       0.54140000
H        1.76580000       3.07200000      -1.43780000
H        2.72750000       1.62600000      -1.81490000
H        0.53470000       0.33120000      -3.90820000
H        0.93540000      -1.72050000      -2.87450000
H        0.45620000      -1.92950000      -0.44460000
H        2.16580000      -1.50690000      -0.55900000
