20
Properties=species:S:1:pos:R:3 gdb_47892=T pbc="F F F"
O       -0.01590000       0.40640000       1.37170000
C        0.14810000       1.23580000       0.49430000
C       -1.06200000       1.60170000      -0.39920000
C       -1.31220000       3.09060000      -0.77360000
C       -0.95810000       3.51970000      -2.21370000
C        0.54300000       3.67840000      -2.51040000
N        1.31340000       2.54880000      -1.97720000
C        1.83110000       2.67120000      -0.69290000
C        1.42630000       1.96080000       0.37580000
H       -1.03190000       0.98160000      -1.30660000
H       -1.91140000       1.21790000       0.17210000
H       -2.38290000       3.27800000      -0.64260000
H       -0.80620000       3.74410000      -0.05380000
H       -1.37890000       2.77990000      -2.90930000
H       -1.46000000       4.46660000      -2.44720000
H        0.70340000       3.76630000      -3.59150000
H        0.93280000       4.59200000      -2.04930000
H        0.81440000       1.67840000      -2.10160000
H        2.65630000       3.37890000      -0.61040000
H        2.02900000       1.95690000       1.27820000
