19
Properties=species:S:1:pos:R:3 gdb_78095=T pbc="F F F"
C        0.03470000       1.52480000      -0.04290000
C        0.01420000       0.02540000       0.02770000
C       -1.25470000      -0.82430000      -0.15340000
C       -0.78710000      -1.73780000       1.04980000
C       -0.76630000      -3.22460000       0.82680000
O        0.18840000      -3.87180000       0.45850000
C        0.51970000      -0.94640000       1.13220000
C        1.21090000      -0.84620000      -0.19840000
O        1.22390000      -1.85490000      -1.15650000
H        1.01210000       1.91980000       0.25230000
H       -0.16710000       1.87160000      -1.06380000
H       -0.71970000       1.97270000       0.61440000
H       -2.18110000      -0.29320000       0.06990000
H       -1.33590000      -1.31980000      -1.12360000
H       -1.43520000      -1.54020000       1.90990000
H       -1.73700000      -3.73580000       1.01360000
H        1.03580000      -0.73200000       2.06170000
H        2.15210000      -0.29700000      -0.13230000
H        1.22570000      -2.70240000      -0.68590000
