22
Properties=species:S:1:pos:R:3 gdb_58442=T pbc="F F F"
C       -1.44110000       0.50110000       0.27440000
C       -0.04310000      -0.02600000      -0.06360000
O        0.72400000       0.94820000      -0.77030000
C        0.71240000      -0.54990000       1.15790000
C        0.74090000       0.38180000       2.35920000
C        0.80060000      -1.99380000       1.49050000
C        0.83300000      -2.91620000       0.27260000
C        2.01880000      -2.05560000      -0.23240000
N        2.03120000      -1.22040000       1.02260000
H       -1.39570000       1.37540000       0.93170000
H       -1.94970000       0.79930000      -0.64610000
H       -2.04250000      -0.26680000       0.77270000
H       -0.16670000      -0.83350000      -0.78800000
H        0.96210000       1.64870000      -0.15390000
H       -0.24820000       0.49190000       2.81330000
H        1.42940000      -0.01030000       3.11070000
H        1.10220000       1.38030000       2.08490000
H        0.70340000      -2.33730000       2.51750000
H        1.13850000      -3.93120000       0.53340000
H       -0.07320000      -2.97720000      -0.33760000
H        2.95720000      -2.60910000      -0.29960000
H        1.88600000      -1.47500000      -1.14810000
