17
Properties=species:S:1:pos:R:3 gdb_10076=T pbc="F F F"
O        0.19150000       1.42290000       0.17780000
C        0.09190000       0.02850000       0.01410000
C       -1.36130000      -0.48360000       0.02030000
C       -2.11500000      -0.09180000      -1.25380000
O       -2.10250000       1.32820000      -1.37410000
C       -1.41390000      -2.02210000       0.16360000
C       -0.91330000      -2.49670000       1.45150000
N       -0.52000000      -2.86750000       2.47280000
H       -0.42400000       1.81800000      -0.45340000
H        0.58090000      -0.31430000      -0.91760000
H        0.64060000      -0.42340000       0.84750000
H       -1.87120000      -0.02870000       0.87720000
H       -1.62800000      -0.56070000      -2.12420000
H       -3.14990000      -0.46430000      -1.21020000
H       -2.45550000       1.57120000      -2.23500000
H       -2.44320000      -2.38070000       0.04620000
H       -0.82460000      -2.49650000      -0.63150000
