20
Properties=species:S:1:pos:R:3 gdb_86057=T pbc="F F F"
C       -0.04490000       1.37560000      -0.01350000
N       -0.01970000      -0.06390000       0.00080000
C       -1.19170000      -0.90220000       0.02890000
C       -0.62390000      -2.30490000       0.03370000
C       -1.52700000      -3.49440000       0.06090000
C        0.71570000      -2.24390000       0.01060000
C        1.74920000      -3.32030000       0.00430000
C        1.13910000      -0.80920000      -0.01110000
O        2.27430000      -0.36960000      -0.03460000
H        0.99240000       1.71660000      -0.03410000
H       -0.56620000       1.76360000      -0.89830000
H       -0.53680000       1.78180000       0.88000000
H       -1.80990000      -0.71310000       0.92110000
H       -1.83950000      -0.73100000      -0.84570000
H       -2.19780000      -3.50280000      -0.80740000
H       -0.96540000      -4.43090000       0.06080000
H       -2.16800000      -3.48520000       0.95160000
H        2.38620000      -3.23340000      -0.88260000
H        2.41450000      -3.21660000       0.86850000
H        1.31010000      -4.32050000       0.02110000
