19
Properties=species:S:1:pos:R:3 gdb_69345=T pbc="F F F"
C        0.14290000       1.49190000      -0.02370000
C        0.05950000       0.00480000       0.07180000
C       -0.93970000      -0.81120000       0.82950000
C        0.54500000      -1.02140000       1.06910000
C        1.18060000      -1.72910000      -0.14220000
C        0.78970000      -3.16460000      -0.47120000
O        0.54850000      -0.75880000      -1.04720000
C        2.63260000      -1.55870000      -0.16170000
C        3.82850000      -1.43750000      -0.16050000
H        1.16780000       1.81180000      -0.23380000
H       -0.50200000       1.86100000      -0.82920000
H       -0.18660000       1.95440000       0.91120000
H       -1.44190000      -0.29930000       1.64530000
H       -1.54410000      -1.55200000       0.31510000
H        1.02040000      -0.90500000       2.03330000
H       -0.29330000      -3.29240000      -0.41720000
H        1.12210000      -3.41740000      -1.48190000
H        1.26630000      -3.85490000       0.23080000
H        4.88440000      -1.32320000      -0.17010000
