14
Properties=species:S:1:pos:R:3 gdb_5699=T pbc="F F F"
C        0.05270000       1.38820000      -0.11000000
C        1.55640000       1.81650000       0.06960000
C        2.04630000       0.54890000       0.67700000
C        1.12480000      -0.43210000       0.61450000
O       -0.06540000      -0.05840000       0.06940000
C        1.72260000      -1.62460000       1.11580000
C        2.99650000      -1.24060000       1.43990000
O        3.22060000       0.08210000       1.17340000
H       -0.57290000       1.86470000       0.65180000
H       -0.34470000       1.62850000      -1.09760000
H        2.03750000       2.05470000      -0.88840000
H        1.63460000       2.70420000       0.70590000
H        1.30090000      -2.60980000       1.22970000
H        3.82910000      -1.77180000       1.87020000
