20
Properties=species:S:1:pos:R:3 gdb_63089=T pbc="F F F"
C       -0.07410000       1.54760000       0.00930000
C        0.02880000       0.03420000      -0.03280000
C       -1.18630000      -0.66460000       0.55590000
C        0.70090000      -0.69030000      -1.17210000
C        1.63140000       0.08600000      -2.10480000
N        2.68370000       0.55600000      -1.22080000
C        2.62920000       0.09500000       0.07410000
O        3.46890000       0.28550000       0.92720000
C        1.35030000      -0.69150000       0.20050000
H        0.80850000       2.04530000      -0.39620000
H       -0.94670000       1.88450000      -0.56270000
H       -0.20410000       1.89180000       1.04110000
H       -2.09720000      -0.38010000       0.01660000
H       -1.09140000      -1.75350000       0.50360000
H       -1.32270000      -0.39000000       1.60780000
H        0.22460000      -1.57750000      -1.57300000
H        2.02910000      -0.57420000      -2.88690000
H        1.12060000       0.92060000      -2.60350000
H        3.46160000       1.11700000      -1.52820000
H        1.37040000      -1.54810000       0.86240000
