21
Properties=species:S:1:pos:R:3 gdb_58671=T pbc="F F F"
C        0.00420000       1.48310000      -0.22880000
C        0.12230000      -0.01400000      -0.06040000
C        1.45670000      -0.70040000      -0.06690000
C        0.65100000      -0.64710000       1.22230000
C        1.12930000       0.23900000       2.27170000
N        1.48210000       0.89980000       3.15470000
N        0.03110000      -1.86890000       1.65750000
C        0.95010000      -2.76360000       2.35580000
C       -1.20420000      -1.65020000       2.40460000
H        0.82260000       2.00970000       0.27000000
H        0.03050000       1.74910000      -1.29060000
H       -0.93590000       1.85700000       0.18940000
H       -0.68820000      -0.59750000      -0.48690000
H        1.53310000      -1.67890000      -0.52610000
H        2.34920000      -0.08710000      -0.12300000
H        1.28330000      -2.36890000       3.33060000
H        0.45440000      -3.72370000       2.52720000
H        1.83390000      -2.93860000       1.73630000
H       -1.88580000      -1.03080000       1.81500000
H       -1.68790000      -2.61430000       2.58750000
H       -1.04080000      -1.15670000       3.37770000
