18
Properties=species:S:1:pos:R:3 gdb_39545=T pbc="F F F"
C       -0.00210000       1.56340000      -0.03940000
C        1.33550000       2.24790000       0.06240000
C        2.48050000       1.57050000       0.14310000
C        2.48160000       0.07060000       0.14670000
C        2.04590000      -0.69120000      -1.11690000
C        1.26160000      -1.67530000      -0.34000000
C        1.25170000      -0.61900000       0.81930000
C        0.09150000       0.04020000       0.04730000
N        0.54320000      -0.68430000      -1.19740000
H       -0.67440000       1.94600000       0.74210000
H       -0.48740000       1.81710000      -0.99310000
H        1.33440000       3.33510000       0.07610000
H        3.43020000       2.09350000       0.21360000
H        3.41710000      -0.35110000       0.52320000
H        2.57230000      -0.80300000      -2.05610000
H        1.12850000      -2.74660000      -0.40270000
H        1.23290000      -0.78740000       1.89440000
H       -0.87550000      -0.39300000       0.31980000
