18
Properties=species:S:1:pos:R:3 gdb_76934=T pbc="F F F"
C       -0.18040000       1.02700000      -1.80530000
C       -0.00900000      -0.17660000      -0.90310000
C        1.33560000      -0.64550000      -0.36380000
C        2.60100000       0.08770000      -0.62560000
O        3.65920000      -0.46900000      -0.78390000
C        0.25910000      -0.06080000       0.58380000
C        0.44390000       1.27920000       1.28530000
C       -0.38880000      -1.04860000       1.41530000
N       -0.91520000      -1.82940000       2.08750000
H        0.45530000       1.87040000      -1.53120000
H        0.05810000       0.75670000      -2.83870000
H       -1.21910000       1.37090000      -1.78130000
H       -0.66060000      -1.00430000      -1.16750000
H        1.48670000      -1.71750000      -0.30180000
H        2.52970000       1.19430000      -0.67960000
H        0.88720000       2.02950000       0.63040000
H       -0.52430000       1.65800000       1.62450000
H        1.08950000       1.16820000       2.16070000
