16
Properties=species:S:1:pos:R:3 gdb_18628=T pbc="F F F"
C       -0.18330000       1.51620000       0.08070000
N        0.04800000       0.08540000      -0.07170000
C        0.66490000      -0.48150000      -1.25150000
C        1.47590000       0.41970000      -2.18300000
N        2.52830000       0.93120000      -1.32390000
C        2.58560000       0.38500000      -0.06480000
O        3.44320000       0.59390000       0.76490000
C        1.37410000      -0.51620000       0.06960000
H        0.59620000       2.16620000      -0.33880000
H       -1.13650000       1.76070000      -0.39830000
H       -0.27460000       1.73730000       1.14770000
H        0.16970000      -1.34460000      -1.68580000
H        1.87910000      -0.16950000      -3.01670000
H        0.86890000       1.22940000      -2.60910000
H        3.21210000       1.61000000      -1.61920000
H        1.45690000      -1.37710000       0.72400000
