18
Properties=species:S:1:pos:R:3 gdb_104775=T pbc="F F F"
O        0.14630000       1.40000000       0.03650000
C        0.06110000       0.01070000       0.36030000
C       -1.34290000      -0.50700000       0.10150000
C       -2.42650000       0.15580000       0.94250000
O       -2.65590000       1.49570000       0.55130000
N       -1.63020000      -0.75870000      -1.30990000
C       -1.60430000      -1.90840000      -0.38380000
C       -0.52300000      -2.91330000      -0.60530000
O       -0.56010000      -4.03310000      -0.16200000
H        0.00160000       1.46720000      -0.91550000
H        0.80410000      -0.56180000      -0.20590000
H        0.30870000      -0.06650000       1.42340000
H       -3.37670000      -0.37430000       0.81180000
H       -2.15440000       0.08210000       2.00820000
H       -1.79010000       1.92800000       0.54970000
H       -2.58920000      -0.50000000      -1.53130000
H       -2.54240000      -2.35250000      -0.05780000
H        0.32290000      -2.55380000      -1.23000000
