21
Properties=species:S:1:pos:R:3 gdb_88016=T pbc="F F F"
O        0.16530000       1.31420000      -0.13400000
C        0.01940000      -0.07030000       0.00850000
C       -0.50550000      -0.70370000       1.27030000
C       -1.33010000      -0.72810000       0.00260000
C       -2.64040000       0.01810000      -0.29140000
C       -2.98160000      -1.07560000      -1.35330000
C       -1.78830000      -1.90230000      -0.84520000
C       -0.96640000      -2.91300000      -1.58580000
C       -1.83630000      -3.34330000      -0.42470000
H       -0.46370000       1.75000000       0.44940000
H        0.83070000      -0.57170000      -0.51120000
H       -0.04780000      -1.62520000       1.62000000
H       -0.84050000      -0.04830000       2.07150000
H       -3.33950000       0.03630000       0.54940000
H       -2.52160000       1.03480000      -0.67780000
H       -3.96490000      -1.54310000      -1.25780000
H       -2.85840000      -0.72270000      -2.38100000
H       -1.27620000      -3.18470000      -2.59020000
H        0.11010000      -2.91090000      -1.44230000
H       -1.34580000      -3.62280000       0.50300000
H       -2.73820000      -3.90850000      -0.63870000
