19
Properties=species:S:1:pos:R:3 gdb_108049=T pbc="F F F"
C        0.02930000       1.42980000      -0.01590000
O       -0.00120000       0.01560000      -0.02040000
C        0.62820000      -0.55340000      -1.12070000
C       -0.05190000      -0.44790000      -2.51850000
C        0.37600000      -1.91040000      -2.79550000
O        1.77590000      -2.00130000      -3.14370000
C        2.16260000      -1.95250000      -1.75170000
C        2.18260000      -0.50050000      -1.21300000
C        0.68860000      -2.11570000      -1.28720000
H        1.05850000       1.81640000       0.00610000
H       -0.48140000       1.85250000      -0.89330000
H       -0.49020000       1.75830000       0.88690000
H       -1.13790000      -0.39020000      -2.38730000
H        0.28500000       0.31250000      -3.22760000
H       -0.24730000      -2.54140000      -3.43040000
H        2.99900000      -2.61790000      -1.53390000
H        2.66140000       0.25650000      -1.83920000
H        2.60290000      -0.47840000      -0.20170000
H        0.27500000      -2.85560000      -0.60900000
