15
Properties=species:S:1:pos:R:3 gdb_25879=T pbc="F F F"
C       -0.06580000       1.48990000       0.01210000
C        0.02090000      -0.02050000       0.01320000
O        1.07790000      -0.62080000       0.02410000
C       -1.26020000      -0.75890000       0.00020000
C       -1.41690000      -2.10570000      -0.00750000
O       -2.76210000      -2.37280000      -0.02090000
C       -3.34580000      -1.14440000      -0.01790000
N       -4.71130000      -1.12110000      -0.09740000
N       -2.52010000      -0.14760000      -0.00150000
H        0.93980000       1.91110000       0.02300000
H       -0.61500000       1.83620000      -0.86960000
H       -0.63420000       1.83680000       0.88120000
H       -0.74790000      -2.94680000      -0.00250000
H       -5.18040000      -1.91990000       0.30280000
H       -5.11310000      -0.23360000       0.16440000
