20
Properties=species:S:1:pos:R:3 gdb_30720=T pbc="F F F"
C        0.03000000       1.58760000       0.40860000
C       -0.02520000       0.13040000      -0.08340000
C       -1.41230000      -0.40460000      -0.19550000
C       -2.17490000      -0.82920000      -1.24520000
C       -1.82380000      -0.88740000      -2.69890000
C       -3.44430000      -1.22030000      -0.67960000
N       -4.55050000      -1.64400000      -1.43400000
C       -3.35050000      -1.00210000       0.65970000
O       -2.11420000      -0.49710000       0.96720000
H        1.06610000       1.92750000       0.50220000
H       -0.48870000       2.25460000      -0.28690000
H       -0.45100000       1.68210000       1.38580000
H        0.45840000       0.04750000      -1.06180000
H        0.55390000      -0.50230000       0.60230000
H       -1.82140000      -1.91730000      -3.08080000
H       -2.54410000      -0.32460000      -3.30450000
H       -0.83140000      -0.47150000      -2.89090000
H       -4.29000000      -2.28310000      -2.17540000
H       -5.26870000      -2.07650000      -0.86700000
H       -4.03040000      -1.13150000       1.48490000
