20
Properties=species:S:1:pos:R:3 gdb_61244=T pbc="F F F"
C        1.22800000       0.87050000      -0.78140000
C        0.75070000      -0.43420000      -0.18870000
N        1.77880000      -1.41310000       0.20710000
C        0.90730000      -0.83050000       1.23980000
C        1.56590000       0.03260000       2.30510000
N        0.62920000       0.85790000       3.06630000
C        2.36310000      -0.87280000       3.26880000
C        3.15490000      -0.12510000       4.24190000
N        3.80250000       0.45300000       5.00410000
H        2.15030000       1.21400000      -0.30860000
H        1.43360000       0.74650000      -1.84970000
H        0.46710000       1.65170000      -0.67640000
H       -0.13690000      -0.83810000      -0.67540000
H        1.49160000      -2.36000000      -0.02300000
H        0.11720000      -1.46870000       1.64250000
H        2.28160000       0.70540000       1.82460000
H        0.17280000       1.52350000       2.45020000
H       -0.10870000       0.28050000       3.46230000
H        1.67620000      -1.53590000       3.81080000
H        3.03100000      -1.51060000       2.68090000
