21
Properties=species:S:1:pos:R:3 gdb_115144=T pbc="F F F"
C        0.06320000       1.64580000       0.20720000
C        0.02170000       0.12150000      -0.01520000
C        0.78480000      -0.40750000      -1.25310000
C        0.72210000       0.46310000      -2.49890000
O        1.38720000      -0.23820000      -3.54140000
C        2.21780000      -0.67890000      -0.73910000
C        2.00020000      -1.24960000       0.66860000
C        0.72530000      -0.56720000       1.17100000
O        0.33640000      -0.54060000       2.31060000
H        1.08770000       2.03310000       0.21070000
H       -0.49590000       2.17730000      -0.56820000
H       -0.38490000       1.87990000       1.17650000
H       -1.02820000      -0.18950000      -0.02110000
H        0.34520000      -1.37620000      -1.52720000
H       -0.32900000       0.66350000      -2.76400000
H        1.20420000       1.43450000      -2.30850000
H        1.39100000       0.31870000      -4.32510000
H        2.77000000      -1.34440000      -1.40380000
H        2.77890000       0.26250000      -0.68410000
H        1.79960000      -2.32900000       0.62970000
H        2.82420000      -1.10510000       1.37120000
