22
Properties=species:S:1:pos:R:3 gdb_60070=T pbc="F F F"
C       -0.13550000       1.62970000       0.25770000
C        0.01570000       0.11330000       0.07350000
C        0.76750000      -0.51210000       1.25590000
C       -1.33760000      -0.59480000      -0.12730000
C       -2.11720000      -0.17250000      -1.36930000
C       -3.60660000      -0.31200000      -1.35490000
N       -3.00100000       1.02260000      -1.31180000
C       -1.42150000      -0.34970000      -2.62290000
C       -0.82740000      -0.53410000      -3.65190000
H        0.84270000       2.10320000       0.39060000
H       -0.61770000       2.09770000      -0.60470000
H       -0.73270000       1.85960000       1.14990000
H        0.60760000      -0.05800000      -0.83490000
H        0.21180000      -0.37870000       2.19230000
H        0.92120000      -1.58670000       1.11090000
H        1.75010000      -0.04760000       1.38700000
H       -1.16530000      -1.67700000      -0.18320000
H       -1.97630000      -0.42610000       0.75150000
H       -4.12880000      -0.54720000      -2.27690000
H       -4.05730000      -0.71960000      -0.45300000
H       -3.00900000       1.37480000      -0.35700000
H       -0.31100000      -0.68310000      -4.56770000
