11
Properties=species:S:1:pos:R:3 gdb_21567=T pbc="F F F"
N       -0.04660000       1.49140000       0.14310000
C       -0.21240000       0.16410000      -0.16720000
C       -1.57580000      -0.35140000       0.08010000
C       -1.83850000      -1.61810000      -0.19280000
O       -2.08310000      -2.72050000      -0.43360000
N        1.31930000      -3.39500000       0.39690000
N        2.39450000      -3.38820000       0.17170000
O        0.70030000      -0.52820000      -0.58280000
H        0.82250000       1.90550000      -0.15420000
H       -0.83780000       2.10400000       0.24560000
H       -2.38000000       0.24520000       0.49140000
