16
Properties=species:S:1:pos:R:3 gdb_89951=T pbc="F F F"
O        0.30220000       1.22010000      -0.44860000
C        0.03280000      -0.08710000      -0.02080000
C        0.14990000      -0.38650000       1.50900000
C       -1.36570000      -0.66400000       1.55130000
O       -2.13150000       0.55690000       1.69160000
C       -2.46560000       0.56660000       0.27310000
C       -1.46990000      -0.55530000      -0.00630000
C       -1.87940000      -1.76220000       2.35050000
N       -2.26950000      -2.65530000       2.97240000
H       -0.05020000       1.83440000       0.20490000
H        0.65700000      -0.73850000      -0.63510000
H        0.75900000      -1.26610000       1.73030000
H        0.46660000       0.44370000       2.14500000
H       -3.51390000       0.29040000       0.11450000
H       -2.26650000       1.53590000      -0.19430000
H       -1.75130000      -1.37500000      -0.66360000
