13
Properties=species:S:1:pos:R:3 gdb_9039=T pbc="F F F"
C        0.03450000       1.50170000       0.02310000
C       -0.02910000      -0.04700000      -0.01970000
C        0.72740000      -0.60010000       1.20200000
O        1.84170000      -1.03670000       1.14050000
C       -1.39780000      -0.53360000      -0.02560000
C       -2.53260000      -0.94860000       0.00480000
C       -3.81700000      -1.41080000       0.02950000
N       -4.91040000      -1.80250000       0.05160000
H        1.07710000       1.82590000      -0.01820000
H       -0.50340000       1.92410000      -0.82830000
H       -0.42030000       1.88500000       0.94070000
H        0.49890000      -0.41010000      -0.90840000
H        0.16730000      -0.52550000       2.15880000
