16
Properties=species:S:1:pos:R:3 gdb_113632=T pbc="F F F"
C       -0.00040000       1.27980000      -0.03960000
O       -0.50030000       0.10000000      -0.64750000
C        0.44960000      -0.58430000      -1.37750000
C        1.43790000      -1.47270000      -0.69860000
C        0.28620000      -2.10080000      -1.47070000
C       -0.80400000      -2.73100000      -0.68630000
O       -0.96030000      -2.63960000       0.50670000
C       -1.75670000      -3.52190000      -1.49800000
N       -2.49030000      -4.14840000      -2.13550000
H        0.81510000       1.05680000       0.66120000
H        0.36530000       1.99460000      -0.79090000
H       -0.83250000       1.72850000       0.50550000
H        0.75530000      -0.09520000      -2.30430000
H        2.43510000      -1.57800000      -1.10940000
H        1.34750000      -1.56240000       0.37850000
H        0.46960000      -2.53920000      -2.44470000
