15
Properties=species:S:1:pos:R:3 gdb_66305=T pbc="F F F"
O        0.13090000       1.51410000       0.10840000
C       -0.00870000       0.13850000      -0.01980000
C       -1.46860000      -0.33530000      -0.20730000
O       -1.37160000      -1.54560000      -0.94660000
C       -0.39490000      -1.35720000      -1.95610000
C        0.62330000      -0.39210000      -1.35650000
O        1.67330000      -0.04730000      -1.81340000
C        0.63430000      -0.57740000       1.15240000
O        1.28630000       0.02950000       1.96650000
H        0.75720000       1.65000000       0.83840000
H       -1.99300000      -0.55740000       0.72440000
H       -2.01820000       0.44770000      -0.74970000
H        0.05160000      -2.32070000      -2.21620000
H       -0.81990000      -0.91030000      -2.86950000
H        0.46590000      -1.66900000       1.21740000
