15
Properties=species:S:1:pos:R:3 gdb_61368=T pbc="F F F"
O        1.24610000       1.65630000       0.47790000
C        0.33250000       0.77080000      -0.10820000
C        0.85470000       0.33150000      -1.49170000
C       -0.17400000      -0.37360000      -2.35270000
O       -1.26470000      -0.71170000      -1.93880000
C        0.23110000      -0.62610000      -3.72330000
C        0.58990000      -0.82990000      -4.85400000
C        0.09180000      -0.41550000       0.81270000
O        0.66800000      -0.50160000       1.87170000
H        1.47720000       1.25820000       1.33330000
H       -0.64710000       1.25560000      -0.25540000
H        1.21260000       1.22230000      -2.02050000
H        1.73470000      -0.31770000      -1.38970000
H        0.89030000      -1.01730000      -5.85680000
H       -0.63070000      -1.17410000       0.46560000
