16
Properties=species:S:1:pos:R:3 gdb_124323=T pbc="F F F"
C       -0.10180000       1.50070000       0.02260000
C        0.04710000      -0.00010000       0.00230000
O        1.10020000      -0.59200000      -0.00560000
N       -1.15960000      -0.72800000      -0.00730000
C       -1.27060000      -2.10310000      -0.02200000
C       -2.61340000      -2.38500000      -0.02350000
N       -3.25670000      -3.62130000      -0.11220000
C       -3.24480000      -1.10280000      -0.00750000
N       -2.37040000      -0.11550000       0.00610000
H        0.89580000       1.93850000       0.02630000
H       -0.66610000       1.84310000      -0.84810000
H       -0.66220000       1.82000000       0.90460000
H       -0.39020000      -2.72160000      -0.03280000
H       -2.68480000      -4.39820000       0.18980000
H       -4.14650000      -3.64450000       0.36730000
H       -4.30480000      -0.88840000      -0.00630000
