19
Properties=species:S:1:pos:R:3 gdb_60911=T pbc="F F F"
C       -0.01310000       1.57120000       0.18140000
C       -0.03320000       0.03510000       0.02710000
C        0.78210000      -0.58470000       1.15890000
O        1.82280000      -1.16730000       1.00870000
C       -1.42680000      -0.53620000       0.02900000
C       -1.93780000      -1.42390000      -0.82170000
C       -3.35960000      -1.73600000      -0.46050000
O       -3.62660000      -0.95960000       0.70560000
C       -2.49020000      -0.17580000       1.04380000
H        1.00840000       1.95100000       0.09110000
H       -0.62590000       2.03980000      -0.59350000
H       -0.40430000       1.88370000       1.15550000
H        0.47080000      -0.24720000      -0.90190000
H        0.34220000      -0.44460000       2.17390000
H       -1.42770000      -1.87100000      -1.66590000
H       -4.06640000      -1.46770000      -1.26240000
H       -3.51510000      -2.80370000      -0.23910000
H       -2.18430000      -0.39670000       2.07920000
H       -2.74850000       0.89500000       1.01030000
