18
Properties=species:S:1:pos:R:3 gdb_90697=T pbc="F F F"
C       -0.00570000       1.57780000      -0.16400000
C       -0.02780000       0.06260000      -0.02040000
C        1.01520000      -0.70930000      -0.88000000
N        1.75470000      -1.08350000       0.35760000
C        0.70720000      -0.54370000       1.24290000
C        1.45870000       0.27290000       2.24940000
C        2.76470000       0.24440000       1.95780000
C        2.97650000      -0.46200000       0.65640000
O        3.95660000      -0.45060000      -0.05420000
H        1.00760000       1.97650000      -0.05560000
H       -0.37740000       1.87340000      -1.15070000
H       -0.63790000       2.05740000       0.59080000
H       -1.04830000      -0.31500000      -0.12080000
H        0.62620000      -1.58200000      -1.41060000
H        1.62120000      -0.10990000      -1.56530000
H        0.10900000      -1.32400000       1.73000000
H        0.99610000       0.73910000       3.11090000
H        3.57900000       0.70390000       2.50100000
