15
Properties=species:S:1:pos:R:3 gdb_21103=T pbc="F F F"
C       -0.03100000       1.42990000      -0.02120000
N        0.01090000      -0.01260000       0.07590000
N        0.01190000      -0.75590000      -1.04100000
N        0.05390000      -2.01410000      -0.67190000
C        0.07800000      -2.06320000       0.67650000
O        0.12210000      -3.22290000       1.36610000
C        0.05140000      -0.78770000       1.19980000
C        0.06100000      -0.27900000       2.59880000
H        0.85460000       1.87710000       0.44040000
H       -0.05380000       1.67900000      -1.08190000
H       -0.92590000       1.82740000       0.46700000
H        0.13110000      -3.93280000       0.71200000
H        0.93040000       0.35720000       2.80320000
H       -0.83710000       0.30420000       2.83470000
H        0.09850000      -1.12610000       3.28700000
