17
Properties=species:S:1:pos:R:3 gdb_42773=T pbc="F F F"
O        0.01480000       0.02470000       0.08190000
C       -0.02010000       1.21620000       0.01140000
C       -1.08120000       2.32200000       0.03720000
C       -0.03380000       3.03340000       1.01480000
C        1.00790000       2.35070000       0.06760000
C        2.39790000       2.10250000      -0.52960000
O        1.81390000       2.30610000      -1.86180000
C        0.73170000       3.05940000      -1.24400000
C       -0.80670000       2.88850000      -1.39880000
H       -2.10960000       2.14520000       0.34440000
H       -0.01730000       4.12480000       1.01870000
H       -0.10540000       2.63890000       2.02920000
H        3.15880000       2.86140000      -0.31250000
H        2.80370000       1.09460000      -0.41200000
H        1.01000000       4.12230000      -1.23470000
H       -1.10120000       2.17020000      -2.16880000
H       -1.30610000       3.83910000      -1.59900000
