19
Properties=species:S:1:pos:R:3 gdb_109235=T pbc="F F F"
C       -0.04530000       1.33990000       0.00200000
O        0.01940000      -0.08760000       0.05480000
C        0.68130000      -0.58880000       1.09250000
N        1.23880000       0.08620000       2.02270000
C        1.82980000      -0.89040000       2.94560000
C        1.44200000      -2.26650000       2.38880000
C        0.00590000      -2.61450000       2.24250000
C       -1.11920000      -1.90460000       2.95580000
N        0.75700000      -2.01110000       1.09350000
H        0.95980000       1.76810000      -0.04050000
H       -0.60390000       1.57820000      -0.90370000
H       -0.55520000       1.73600000       0.88470000
H        2.92020000      -0.77620000       2.96720000
H        1.47280000      -0.71840000       3.96890000
H        2.18430000      -3.05890000       2.38610000
H       -0.20610000      -3.66150000       2.03610000
H       -0.89640000      -0.85400000       3.15260000
H       -2.04100000      -1.95650000       2.36720000
H       -1.30900000      -2.39780000       3.91520000
