14
Properties=species:S:1:pos:R:3 gdb_10892=T pbc="F F F"
C       -0.09010000       1.50480000       0.07240000
C        0.16530000       0.03800000      -0.03020000
O       -0.74710000      -0.87720000       0.59180000
C        0.65320000      -0.94100000       0.98020000
C        1.28170000      -1.78610000      -0.11900000
O        1.99060000      -2.74560000      -0.14710000
C        0.74120000      -0.77810000      -1.21060000
O       -0.14810000      -1.20370000      -2.19660000
H        0.82050000       2.06980000      -0.14880000
H       -0.85760000       1.80720000      -0.64760000
H       -0.43600000       1.76690000       1.07540000
H        0.88540000      -0.81770000       2.03100000
H        1.58700000      -0.29250000      -1.71010000
H       -0.89660000      -1.60560000      -1.73740000
