19
Properties=species:S:1:pos:R:3 gdb_97302=T pbc="F F F"
C        0.05080000       1.47780000       0.46360000
N        0.09920000       0.05950000       0.18130000
C       -1.00720000      -0.55880000       0.09060000
N       -1.07160000      -1.90430000      -0.16290000
C       -2.19950000      -2.81400000      -0.40690000
C       -1.15290000      -3.95980000      -0.60230000
N       -1.24500000      -4.70620000      -1.83930000
C       -0.08020000      -2.86960000      -0.42020000
N        1.17610000      -2.85570000      -0.51590000
H        0.59310000       1.69070000       1.39260000
H        0.55910000       2.03280000      -0.33380000
H       -0.97300000       1.87480000       0.56270000
H       -1.99350000      -0.08570000       0.20830000
H       -2.88640000      -2.92310000       0.43740000
H       -2.76470000      -2.58480000      -1.31660000
H       -1.15810000      -4.66440000       0.23380000
H       -1.04520000      -4.09550000      -2.62770000
H       -0.52190000      -5.41960000      -1.85440000
H        1.53030000      -1.91110000      -0.35120000
