18
Properties=species:S:1:pos:R:3 gdb_47864=T pbc="F F F"
N       -0.12980000       1.12830000      -0.56970000
C       -0.01810000      -0.07900000      -0.16990000
N       -1.11280000      -0.92890000      -0.19130000
C       -1.40570000      -1.85060000       0.91330000
C       -0.55320000      -3.12340000       0.88570000
N        0.87570000      -2.95180000       1.10150000
C        1.59110000      -2.16070000       0.10670000
C        1.35590000      -0.65270000       0.19470000
O        2.24370000       0.10900000       0.50590000
H        0.79200000       1.56850000      -0.54290000
H       -1.92580000      -0.40670000      -0.49420000
H       -1.30030000      -1.35760000       1.89340000
H       -2.45850000      -2.13420000       0.81360000
H       -0.92820000      -3.80730000       1.65610000
H       -0.69060000      -3.61660000      -0.08460000
H        1.06960000      -2.61150000       2.03770000
H        2.66780000      -2.31530000       0.22320000
H        1.29380000      -2.51370000      -0.88840000
