17
Properties=species:S:1:pos:R:3 gdb_10898=T pbc="F F F"
C        0.24080000       1.34660000       0.01900000
N       -0.25240000      -0.01460000       0.03740000
C       -0.10120000      -0.96620000      -0.97720000
O       -0.06610000      -0.85000000      -2.17200000
C        0.03750000      -2.09300000       0.03860000
C        1.21960000      -1.72780000       0.94440000
C       -0.09370000      -1.01860000       1.10460000
C       -0.93760000      -0.96880000       2.34090000
H        1.27210000       1.42320000       0.39200000
H        0.21780000       1.69300000      -1.01710000
H       -0.39680000       2.00300000       0.61960000
H       -0.39160000      -3.08410000      -0.00100000
H        1.46450000      -2.47510000       1.69490000
H        2.08070000      -1.21390000       0.52670000
H       -0.64180000      -0.13710000       2.99050000
H       -1.99370000      -0.84040000       2.08420000
H       -0.82810000      -1.89140000       2.91810000
