18
Properties=species:S:1:pos:R:3 gdb_65970=T pbc="F F F"
C       -0.08780000       1.66020000       0.05550000
C        0.07830000       0.14700000      -0.00230000
O        1.20840000      -0.26360000      -0.80770000
C        1.82470000      -0.97930000       0.29440000
C        0.69090000      -0.56450000       1.22240000
C        0.65160000      -0.16540000       2.64180000
N        0.02910000      -1.42380000       2.18150000
C       -1.19670000      -0.51230000      -0.49950000
O       -2.18840000      -0.62130000       0.17980000
H        0.81660000       2.12220000       0.45890000
H       -0.26500000       2.06260000      -0.94720000
H       -0.94170000       1.92170000       0.68750000
H        1.89090000      -2.05680000       0.10420000
H        2.81880000      -0.58230000       0.52840000
H        1.53140000      -0.29180000       3.26760000
H        0.01020000       0.66690000       2.92090000
H       -0.98080000      -1.31670000       2.09920000
H       -1.13740000      -0.90260000      -1.53910000
