18
Properties=species:S:1:pos:R:3 gdb_18040=T pbc="F F F"
C        0.04730000       1.57080000       0.11080000
O        1.46780000       1.56090000      -0.14600000
C        1.41250000       0.15080000      -0.50760000
C        2.46300000      -0.71330000       0.10720000
C        2.14990000      -1.72070000       0.92290000
C        0.73860000      -1.98640000       1.38820000
C       -0.07940000      -0.68450000       1.40660000
C       -0.02360000       0.03000000       0.05370000
H       -0.19430000       2.04120000       1.07140000
H       -0.50690000       2.08220000      -0.68860000
H        1.44840000       0.05540000      -1.60440000
H        3.49370000      -0.52290000      -0.18110000
H        2.93230000      -2.37750000       1.29560000
H        0.25670000      -2.73520000       0.74240000
H        0.75770000      -2.42980000       2.39020000
H       -1.11780000      -0.87980000       1.69490000
H        0.34960000      -0.03060000       2.17480000
H       -0.75400000      -0.38780000      -0.64360000
