21
Properties=species:S:1:pos:R:3 gdb_95381=T pbc="F F F"
O       -0.46990000       1.45090000       0.41690000
C       -0.07510000       0.12870000       0.07130000
C        0.71290000      -0.53900000       1.20830000
C       -0.37620000      -0.84330000       2.25250000
C       -1.56180000      -1.35960000       1.40740000
C       -2.97150000      -0.87480000       1.80380000
C       -3.21250000       0.30540000       0.84890000
O       -2.53870000      -0.04760000      -0.35780000
C       -1.35920000      -0.74630000      -0.01880000
H        0.33030000       1.96500000       0.56250000
H        0.47480000       0.13430000      -0.88020000
H        1.16810000      -1.46870000       0.84290000
H        1.52540000       0.09340000       1.58370000
H       -0.05510000      -1.55820000       3.01450000
H       -0.65280000       0.08430000       2.76430000
H       -1.52800000      -2.45090000       1.35870000
H       -3.71120000      -1.66050000       1.62310000
H       -3.03990000      -0.58440000       2.85600000
H       -4.26670000       0.46230000       0.60380000
H       -2.79960000       1.23650000       1.25590000
H       -1.20560000      -1.51290000      -0.78570000
