21
Properties=species:S:1:pos:R:3 gdb_78010=T pbc="F F F"
C       -0.27680000       1.26260000      -0.65410000
C        0.14150000      -0.19090000      -0.55630000
C        1.51640000      -0.76700000      -0.59970000
C        2.60160000       0.00030000       0.17800000
C        3.18930000       1.28700000      -0.39310000
C        1.68040000       0.02880000       1.44350000
C        0.65380000      -0.84160000       0.71390000
C        0.05270000      -2.05890000       1.26030000
O        0.16350000      -2.43200000       2.40620000
H       -0.18930000       1.61990000      -1.68560000
H       -1.32280000       1.37270000      -0.34940000
H        0.31940000       1.92080000      -0.02100000
H       -0.55640000      -0.85190000      -1.07170000
H        1.73180000      -1.60030000      -1.26070000
H        3.42280000      -0.69650000       0.37420000
H        2.42640000       2.04000000      -0.60440000
H        3.90560000       1.72540000       0.31060000
H        3.72450000       1.08660000      -1.32790000
H        2.10760000      -0.48280000       2.30660000
H        1.32520000       1.01230000       1.76450000
H       -0.52500000      -2.65450000       0.51340000
