20
Properties=species:S:1:pos:R:3 gdb_78309=T pbc="F F F"
C       -0.10530000       1.39580000      -0.00830000
N        0.02980000      -0.05510000       0.05360000
C        1.39150000      -0.54430000      -0.20040000
C        0.84190000      -0.53820000       1.17810000
C        0.74020000      -2.07580000       1.41360000
C        0.03730000      -2.60860000       2.62860000
C        2.14980000      -2.53260000       0.91410000
C        1.47230000      -2.07990000      -0.40780000
O        0.21150000      -2.54580000       0.13610000
H        0.78270000       1.94950000       0.34410000
H       -0.30270000       1.69160000      -1.04350000
H       -0.96110000       1.70070000       0.60230000
H        2.16560000       0.13070000      -0.54880000
H        1.16390000       0.14250000       1.95910000
H       -1.00590000      -2.27730000       2.63510000
H        0.05370000      -3.70170000       2.64320000
H        0.51890000      -2.24060000       3.54080000
H        3.03730000      -1.99840000       1.26710000
H        2.27640000      -3.61530000       0.97030000
H        1.71550000      -2.48470000      -1.38930000
