20
Properties=species:S:1:pos:R:3 gdb_102710=T pbc="F F F"
C       -0.50750000       1.32890000      -0.13700000
N       -0.11490000      -0.06180000      -0.05440000
C        0.66930000      -0.58350000      -0.89330000
C        1.39510000       0.02890000      -2.08450000
O        1.62520000      -0.88590000      -3.13090000
O        1.05110000      -1.88690000      -0.77710000
C        0.49520000      -2.63410000       0.28320000
C       -0.70850000      -3.47880000       0.00020000
C        0.65980000      -4.11370000       0.17000000
H       -0.32820000       1.81450000      -1.10610000
H       -1.57600000       1.41000000       0.08820000
H        0.02210000       1.90900000       0.62920000
H        0.80520000       0.85070000      -2.49690000
H        2.33750000       0.46600000      -1.70980000
H        1.86120000      -1.72230000      -2.71420000
H        0.58020000      -2.14000000       1.24340000
H       -1.44810000      -3.59550000       0.78400000
H       -1.11090000      -3.43740000      -1.00540000
H        1.14580000      -4.48840000      -0.72380000
H        0.87360000      -4.67590000       1.07180000
