14
Properties=species:S:1:pos:R:3 gdb_43237=T pbc="F F F"
O       -0.02940000      -0.07060000       0.00060000
C       -0.06160000       1.13030000      -0.06800000
C       -1.23180000       2.06520000       0.13640000
C       -0.61810000       3.27410000       0.08020000
C        0.60290000       3.36740000      -0.80090000
C        1.18540000       4.31240000       0.28330000
C        1.29600000       3.11620000       1.15280000
C        1.16290000       2.09710000      -0.04730000
N        0.01770000       4.02920000       1.15050000
H       -2.00350000       1.77210000       0.83760000
H        0.59930000       3.44930000      -1.88250000
H        1.72130000       5.25070000       0.25780000
H        1.77890000       2.97690000       2.11110000
H        2.12670000       1.67220000      -0.33600000
