18
Properties=species:S:1:pos:R:3 gdb_62479=T pbc="F F F"
C       -0.06540000       1.59800000       0.00780000
C       -0.06140000       0.07320000       0.02790000
O       -1.37810000      -0.38760000      -0.16280000
C        1.03410000      -0.56970000      -0.86210000
O        1.01510000      -0.94450000      -1.99940000
C        1.96770000      -0.80630000       0.34000000
C        0.73250000      -0.54470000       1.21620000
C        0.55490000      -0.28890000       2.65510000
N        0.15980000      -1.58570000       2.05880000
H        0.92790000       2.00630000       0.21440000
H       -0.40270000       1.95960000      -0.96740000
H       -0.75470000       1.96800000       0.77310000
H       -1.35080000      -1.14410000      -0.76030000
H        2.41170000      -1.80210000       0.40030000
H        2.75360000      -0.04920000       0.42860000
H        1.40600000      -0.33830000       3.32920000
H       -0.22630000       0.40380000       2.96020000
H       -0.84910000      -1.59500000       1.90530000
