16
Properties=species:S:1:pos:R:3 gdb_105438=T pbc="F F F"
N       -0.06380000       1.43880000      -0.08090000
C       -0.07760000      -0.01120000      -0.00480000
C       -1.51050000      -0.54510000      -0.11100000
C       -1.61060000      -2.09560000       0.09730000
N       -2.37890000      -2.26540000       1.33470000
C       -2.68110000      -1.10280000       1.72600000
O       -2.27650000      -0.01680000       1.01230000
C       -2.16290000      -0.10610000      -1.35200000
N       -2.67410000       0.16640000      -2.35110000
H       -0.49680000       1.83580000       0.74610000
H        0.88660000       1.78750000      -0.12740000
H        0.49630000      -0.41860000      -0.84480000
H        0.34480000      -0.44090000       0.92020000
H       -2.11640000      -2.59210000      -0.73430000
H       -0.61670000      -2.54300000       0.20320000
H       -3.25530000      -0.85950000       2.61250000
