20
Properties=species:S:1:pos:R:3 gdb_17787=T pbc="F F F"
C       -0.42400000       1.36790000       0.59980000
O       -0.30690000      -0.02740000       0.72410000
C        0.98630000      -0.50250000       0.40010000
C        0.96300000      -2.01300000       0.51550000
C        2.27640000      -2.85830000       0.54040000
C        2.49920000      -2.40170000       2.01360000
C        0.98270000      -2.73680000       1.90130000
C        1.41220000      -4.01550000       1.12340000
H       -0.22480000       1.70660000      -0.43000000
H       -1.44910000       1.63730000       0.86680000
H        0.26880000       1.90040000       1.27170000
H        1.24810000      -0.21500000      -0.63410000
H        1.73540000      -0.03570000       1.05780000
H        0.19770000      -2.40020000      -0.16670000
H        3.02600000      -2.93200000      -0.24980000
H        3.09360000      -3.07420000       2.63840000
H        2.78280000      -1.36360000       2.19120000
H        0.22910000      -2.66470000       2.68590000
H        0.66860000      -4.45890000       0.45520000
H        1.94600000      -4.77870000       1.69590000
