20
Properties=species:S:1:pos:R:3 gdb_39603=T pbc="F F F"
C       -0.02560000       1.51050000      -0.03070000
C        1.38560000       2.14280000       0.02170000
C        2.28190000       1.58980000       1.15750000
C        2.26020000       0.07640000       1.02190000
N        3.01400000      -0.80600000       1.94200000
C        2.27270000      -1.83500000       2.03600000
O        1.03850000      -1.83940000       1.45000000
C        0.83140000      -0.43220000       1.16200000
C       -0.02360000      -0.04100000      -0.02100000
H       -0.60480000       1.85890000       0.83450000
H       -0.55410000       1.87200000      -0.91870000
H        1.89170000       1.96010000      -0.93560000
H        1.28860000       3.22960000       0.11480000
H        3.29780000       1.98750000       1.07280000
H        1.89540000       1.88920000       2.13980000
H        2.62670000      -0.16370000       0.00880000
H        2.52990000      -2.75470000       2.55000000
H        0.38910000      -0.00400000       2.07660000
H       -1.04640000      -0.42230000       0.06110000
H        0.40650000      -0.43730000      -0.94830000
