20
Properties=species:S:1:pos:R:3 gdb_65782=T pbc="F F F"
C       -0.03910000       1.61450000      -0.03700000
C       -0.00490000       0.08720000       0.00950000
C        0.76540000      -0.51350000      -1.19650000
C        1.89780000      -1.32970000      -0.55000000
O        2.09760000      -0.73500000       0.72840000
C        0.80290000      -0.46240000       1.22160000
O       -1.34260000      -0.45130000      -0.04350000
C       -2.15090000      -0.25730000       1.01530000
N       -3.34130000      -0.67920000       0.98200000
H        0.98380000       2.00220000      -0.01000000
H       -0.51930000       1.95840000      -0.95760000
H       -0.58350000       2.03600000       0.81380000
H        0.09150000      -1.11960000      -1.80360000
H        1.16850000       0.28450000      -1.82410000
H        1.60740000      -2.38610000      -0.43780000
H        2.84430000      -1.28570000      -1.09280000
H        0.90050000       0.24510000       2.04910000
H        0.31500000      -1.38060000       1.58800000
H       -1.68020000       0.27030000       1.85470000
H       -3.80960000      -0.46200000       1.85930000
