23
Properties=species:S:1:pos:R:3 gdb_100090=T pbc="F F F"
C        0.10980000       1.45010000      -0.34720000
C       -0.06410000       0.03530000       0.21300000
C       -1.48900000      -0.54880000       0.07950000
C       -2.52940000       0.30720000       0.80470000
O       -1.88670000      -0.54980000      -1.29970000
C       -1.47330000      -2.00560000       0.63190000
C       -2.83080000      -2.70400000       0.58060000
C       -3.20380000      -3.39230000      -0.71670000
O       -3.57420000      -2.68580000       1.53630000
H        1.16660000       1.73300000      -0.35140000
H       -0.26540000       1.51070000      -1.37250000
H       -0.42690000       2.19290000       0.24950000
H        0.62620000      -0.64620000      -0.30570000
H        0.22910000       0.00950000       1.26930000
H       -2.56430000       1.30820000       0.37000000
H       -3.52390000      -0.13480000       0.72280000
H       -2.28570000       0.39040000       1.86740000
H       -1.18570000      -0.97230000      -1.80900000
H       -0.73210000      -2.57970000       0.06120000
H       -1.15720000      -1.98400000       1.67870000
H       -2.46800000      -4.16640000      -0.96420000
H       -4.19500000      -3.83940000      -0.63290000
H       -3.18300000      -2.65430000      -1.52520000
