14
Properties=species:S:1:pos:R:3 gdb_28394=T pbc="F F F"
N        0.02960000       1.40010000       0.15980000
C       -0.09390000       0.02400000       0.12270000
C       -1.19640000      -0.70900000      -0.14260000
N       -1.18160000      -2.08790000      -0.03280000
C       -0.08990000      -2.66950000       0.30590000
O       -0.02110000      -4.00680000       0.42710000
C        1.16890000      -1.96260000       0.58510000
N        2.25600000      -2.52870000       0.89730000
O        1.07150000      -0.58210000       0.47500000
H        0.94910000       1.73140000      -0.10100000
H       -0.70580000       1.89080000      -0.32790000
H       -2.12760000      -0.24270000      -0.43550000
H       -0.90680000      -4.33580000       0.21720000
H        2.99380000      -1.83900000       1.04680000
