14
Properties=species:S:1:pos:R:3 gdb_27339=T pbc="F F F"
N        0.01570000       1.35360000       0.13070000
C        0.00270000      -0.02320000       0.03700000
N       -1.14150000      -0.65110000       0.02640000
C       -1.14540000      -2.02580000       0.01650000
O       -2.16330000      -2.71470000       0.02290000
C        0.15310000      -2.73450000      -0.02320000
O        0.06760000      -4.07220000      -0.06060000
C        1.30040000      -2.03250000      -0.02110000
N        1.21290000      -0.64010000       0.00910000
H        0.74010000       1.84180000      -0.37570000
H       -0.90530000       1.74370000      -0.01020000
H       -0.90220000      -4.22120000      -0.04470000
H        2.29220000      -2.46040000      -0.04790000
H        2.05290000      -0.10050000       0.13960000
