26
Properties=species:S:1:pos:R:3 gdb_100117=T pbc="F F F"
C       -0.07680000       1.53690000       0.15930000
C        0.01420000       0.02070000      -0.04660000
C        0.74290000      -0.46370000      -1.32610000
C        0.06720000       0.09670000      -2.59100000
C        2.22460000      -0.04740000      -1.29930000
C        0.62610000      -2.00630000      -1.33600000
N        1.28460000      -2.63150000      -2.48020000
C        2.58980000      -3.24310000      -2.25270000
C        1.37980000      -4.08580000      -2.44740000
H        0.91100000       2.00310000       0.22780000
H       -0.62170000       2.02690000      -0.65300000
H       -0.60700000       1.76100000       1.09040000
H        0.51180000      -0.42490000       0.82550000
H       -1.00410000      -0.39170000      -0.05560000
H        0.21250000       1.17740000      -2.68080000
H        0.48290000      -0.38060000      -3.48170000
H       -1.01200000      -0.09680000      -2.57920000
H        2.73650000      -0.45240000      -0.41820000
H        2.74700000      -0.40770000      -2.18940000
H        2.33160000       1.04110000      -1.27450000
H        1.01070000      -2.40880000      -0.38000000
H       -0.43720000      -2.27340000      -1.38780000
H        3.31730000      -3.12450000      -3.05090000
H        3.00650000      -3.19780000      -1.24740000
H        0.99060000      -4.60190000      -1.57060000
H        1.20270000      -4.59550000      -3.39050000
