16
Properties=species:S:1:pos:R:3 gdb_124357=T pbc="F F F"
C       -0.19850000       1.55780000      -0.00690000
C        0.12450000       0.07290000      -0.00130000
O        1.25290000      -0.36340000      -0.07160000
N       -0.99040000      -0.74310000       0.06340000
C       -0.96880000      -2.13490000       0.02920000
C        0.05600000      -3.05640000      -0.06550000
C       -0.60750000      -4.30340000      -0.04600000
N       -1.92560000      -4.18560000       0.05170000
N       -2.12710000      -2.84520000       0.09700000
H        0.67230000       2.10210000       0.35830000
H       -0.40150000       1.88620000      -1.03220000
H       -1.06840000       1.80550000       0.60870000
H       -1.89160000      -0.29600000       0.11800000
H        1.10470000      -2.83700000      -0.13470000
H       -0.16510000      -5.28760000      -0.10030000
H       -3.06790000      -2.49860000       0.17490000
