13
Properties=species:S:1:pos:R:3 gdb_11183=T pbc="F F F"
O       -0.00570000       0.02280000      -0.22530000
C       -0.02010000       1.20640000      -0.03710000
C       -1.25470000       2.08010000       0.20030000
O       -0.76270000       3.35840000       0.57840000
C        0.52750000       3.53930000      -0.00340000
C        1.18890000       2.15030000       0.01310000
C        0.41670000       4.08170000      -1.37540000
N        0.32450000       4.49710000      -2.44950000
H       -1.85110000       2.12630000      -0.72340000
H       -1.88230000       1.68830000       1.00430000
H        1.05370000       4.27270000       0.61210000
H        1.71630000       1.99440000       0.95960000
H        1.88080000       1.95730000      -0.80710000
