20
Properties=species:S:1:pos:R:3 gdb_47907=T pbc="F F F"
N       -0.07920000       1.29790000      -0.63420000
C       -0.01790000       0.12770000      -0.15170000
C       -1.28190000      -0.69350000      -0.01110000
C       -1.90270000      -0.69250000       1.40270000
C       -1.16420000      -1.45050000       2.51910000
C        0.21530000      -0.89710000       2.91480000
O        1.33870000      -1.51450000       2.28680000
C        1.30320000      -1.63600000       0.90560000
O        1.19240000      -0.38890000       0.23630000
H        0.85200000       1.72060000      -0.64010000
H       -1.99290000      -0.22260000      -0.69210000
H       -1.13520000      -1.72060000      -0.36260000
H       -2.03260000       0.35220000       1.71090000
H       -2.91120000      -1.11240000       1.31450000
H       -1.79840000      -1.40600000       3.41230000
H       -1.06910000      -2.51700000       2.27870000
H        0.24670000       0.18890000       2.74660000
H        0.39280000      -1.06600000       3.97990000
H        2.27390000      -2.04480000       0.61720000
H        0.50810000      -2.31300000       0.57250000
