21
Properties=species:S:1:pos:R:3 gdb_9688=T pbc="F F F"
C        0.38410000       1.54810000       0.02600000
C       -0.16100000       0.12550000      -0.07960000
N        0.45410000      -0.56380000      -1.21020000
C        1.67220000      -1.33160000      -0.96550000
C        0.39170000      -2.02210000      -1.32070000
C       -0.31700000      -2.88200000      -0.29150000
C        0.20680000      -2.49640000      -2.75450000
O        0.69690000      -3.81380000      -2.96370000
H        1.46260000       1.53840000       0.21590000
H        0.21100000       2.09610000      -0.90420000
H       -0.09910000       2.08770000       0.84650000
H       -0.00580000      -0.39730000       0.87840000
H       -1.24300000       0.15370000      -0.25570000
H        2.47170000      -1.20640000      -1.69400000
H        2.01410000      -1.42730000       0.06510000
H       -0.02380000      -2.64870000       0.73390000
H       -1.40480000      -2.76860000      -0.37170000
H       -0.08190000      -3.93200000      -0.48560000
H       -0.86100000      -2.53810000      -2.99940000
H        0.67390000      -1.76850000      -3.43220000
H        1.64210000      -3.80130000      -2.77950000
