21
Properties=species:S:1:pos:R:3 gdb_72515=T pbc="F F F"
C       -0.00970000       1.51820000       0.01820000
C        0.03170000       0.00360000       0.00250000
C        0.61810000      -0.65210000      -1.27580000
C        0.03960000      -2.11240000      -1.27310000
C       -0.81710000      -2.16750000       0.01280000
C        0.13020000      -2.13590000       1.23430000
C        0.70820000      -0.67540000       1.22280000
C       -1.32790000      -0.72110000       0.04480000
O       -2.43970000      -0.27190000       0.08930000
H        0.99850000       1.94540000      -0.01380000
H       -0.56760000       1.90230000      -0.84160000
H       -0.50450000       1.88570000       0.92260000
H        0.29530000      -0.10550000      -2.16710000
H        1.71210000      -0.63550000      -1.26190000
H       -0.57620000      -2.29000000      -2.15900000
H        0.82540000      -2.87290000      -1.26220000
H       -1.58330000      -2.94050000       0.03320000
H       -0.42000000      -2.33080000       2.15890000
H        0.91280000      -2.89540000       1.15220000
H        1.79830000      -0.65760000       1.13080000
H        0.45040000      -0.14590000       2.14510000
