18
Properties=species:S:1:pos:R:3 gdb_114507=T pbc="F F F"
O       -0.06270000       1.39360000      -0.26610000
C        0.04620000      -0.01630000      -0.12610000
C       -1.36070000      -0.55220000       0.05040000
C       -2.33440000      -0.49990000      -1.17100000
C       -2.54870000      -2.02170000      -1.05260000
O       -1.60820000      -2.77700000      -1.88230000
C       -0.71730000      -2.90000000      -0.82960000
N        0.38750000      -3.49150000      -0.76680000
C       -1.55790000      -2.10260000       0.14130000
H        0.81380000       1.74600000      -0.44520000
H        0.51610000      -0.47200000      -1.01010000
H        0.66030000      -0.29200000       0.74600000
H       -1.80870000      -0.06810000       0.92200000
H       -3.23330000       0.09410000      -0.99500000
H       -1.88920000      -0.19540000      -2.12040000
H       -3.54610000      -2.45770000      -1.08780000
H        0.62230000      -3.93240000      -1.65830000
H       -1.75880000      -2.54750000       1.11330000
