15
Properties=species:S:1:pos:R:3 gdb_3448=T pbc="F F F"
C        0.15110000       1.55070000      -0.01490000
C        0.04200000       0.03460000       0.03550000
O        0.69400000      -0.50510000      -1.11940000
C        1.29490000      -1.75610000      -0.81210000
C        1.52110000      -1.74150000       0.68370000
O        2.16160000      -0.54350000       1.13870000
C        0.73360000      -0.62920000       1.21350000
H        1.20050000       1.84730000       0.05440000
H       -0.25970000       1.92740000      -0.95510000
H       -0.40440000       2.00530000       0.81150000
H       -1.01910000      -0.27080000       0.05090000
H        0.63820000      -2.60280000      -1.07340000
H        2.21790000      -1.83850000      -1.39560000
H        1.74240000      -2.65150000       1.23430000
H        0.29580000      -0.60960000       2.20780000
