18
Properties=species:S:1:pos:R:3 gdb_52741=T pbc="F F F"
C       -0.33150000       1.66340000      -0.02200000
C       -0.14070000       0.22040000      -0.00500000
C        0.03330000      -0.97100000       0.01960000
C        0.18760000      -2.42020000       0.02190000
C       -1.17430000      -3.12190000       0.12290000
O       -1.34310000      -4.13110000       0.75370000
C        0.88840000      -2.93040000      -1.24440000
C        2.32380000      -3.29800000      -1.18820000
N        1.28980000      -4.33770000      -1.32590000
H        0.62780000       2.18960000       0.02980000
H       -0.83790000       1.98550000      -0.93820000
H       -0.93870000       1.99370000       0.82770000
H        0.76470000      -2.75480000       0.89310000
H       -1.99050000      -2.64410000      -0.46000000
H        0.48030000      -2.52770000      -2.16820000
H        2.95620000      -3.16250000      -2.06070000
H        2.83460000      -3.18460000      -0.23510000
H        1.11990000      -4.80120000      -0.43540000
