23
Properties=species:S:1:pos:R:3 gdb_66307=T pbc="F F F"
C       -0.04300000       1.54840000       0.49540000
C       -0.01260000       0.08140000       0.10580000
C       -1.30570000      -0.47630000      -0.47240000
C       -1.71100000       0.13650000      -1.82080000
C       -2.99260000      -0.49320000      -2.39500000
C       -3.31620000       0.04840000      -3.76760000
O       -4.34540000       0.59180000      -4.07590000
C        1.28760000      -0.47980000      -0.42350000
C        0.81490000      -0.84540000       0.96470000
H        0.90700000       1.85430000       0.94450000
H       -0.21940000       2.19860000      -0.36850000
H       -0.83520000       1.74580000       1.22770000
H       -1.20160000      -1.56200000      -0.59740000
H       -2.12030000      -0.32970000       0.25080000
H       -1.86450000       1.21640000      -1.71230000
H       -0.88750000       0.01160000      -2.53620000
H       -2.84600000      -1.57920000      -2.49360000
H       -3.85340000      -0.32540000      -1.74070000
H       -2.49600000      -0.08500000      -4.51350000
H        1.24450000      -1.24480000      -1.19240000
H        2.13700000       0.18890000      -0.51530000
H        1.34340000      -0.42120000       1.81200000
H        0.45270000      -1.85490000       1.13020000
