19
Properties=species:S:1:pos:R:3 gdb_128587=T pbc="F F F"
C        0.03750000       1.40120000       0.13650000
O        0.01650000      -0.00940000       0.05580000
C        0.61830000      -0.53640000      -1.04010000
C        1.26740000       0.07590000      -2.09550000
N        1.69820000      -0.93620000      -2.90260000
C        2.34000000      -0.81930000      -4.19110000
N        1.35190000      -2.14830000      -2.43390000
C        0.69760000      -1.92680000      -1.29390000
C        0.16670000      -3.04210000      -0.45450000
H        1.06730000       1.78360000       0.17300000
H       -0.47810000       1.85760000      -0.72020000
H       -0.48120000       1.67430000       1.05690000
H        1.45840000       1.10950000      -2.32980000
H        3.07030000      -0.00570000      -4.17230000
H        2.85190000      -1.75980000      -4.39660000
H        1.61510000      -0.62700000      -4.99130000
H        0.61530000      -3.04050000       0.54520000
H       -0.91710000      -2.95870000      -0.31760000
H        0.38500000      -3.99970000      -0.93190000
