13
Properties=species:S:1:pos:R:3 gdb_23656=T pbc="F F F"
N       -0.01640000       1.39780000      -0.14390000
C       -0.00480000       0.02280000      -0.05580000
C       -1.19320000      -0.71520000      -0.02900000
C       -1.08850000      -2.09800000       0.00660000
F       -2.22100000      -2.80030000       0.03340000
N        0.02350000      -2.79830000       0.02030000
C        1.15590000      -2.07890000      -0.00490000
C        1.20430000      -0.69790000      -0.04210000
H        0.82310000       1.87870000       0.13760000
H       -0.86370000       1.86690000       0.13490000
H       -2.16690000      -0.24000000      -0.03810000
H        2.07950000      -2.65190000       0.00790000
H        2.15710000      -0.18020000      -0.06360000
