17
Properties=species:S:1:pos:R:3 gdb_30752=T pbc="F F F"
C        0.37350000       0.79400000       0.37880000
O       -0.47000000       0.40250000      -0.70280000
C       -1.47900000      -0.44110000      -0.36530000
C       -1.48450000      -1.75490000       0.06490000
N       -0.43180000      -2.67810000       0.32960000
C       -2.85670000      -2.13640000       0.17370000
O       -3.26190000      -3.37170000       0.56420000
C       -3.64220000      -1.07070000      -0.18500000
N       -2.77330000      -0.03190000      -0.50330000
H        1.10380000       1.49380000      -0.03310000
H       -0.20270000       1.28760000       1.17090000
H        0.90190000      -0.06680000       0.80540000
H        0.06880000      -2.47480000       1.18910000
H        0.24890000      -2.71100000      -0.42160000
H       -2.44420000      -3.88340000       0.65690000
H       -4.71000000      -0.95770000      -0.24840000
H       -3.03660000       0.86870000      -0.86130000
