19
Properties=species:S:1:pos:R:3 gdb_119500=T pbc="F F F"
C        0.53870000       1.37140000       0.08120000
O        0.87800000       0.01250000       0.21680000
C       -0.03200000      -0.70210000       1.03430000
C        0.35770000      -2.14110000       1.04720000
C        0.14670000      -3.07890000       2.20610000
C        1.54770000      -2.82460000       1.71530000
C        1.82300000      -3.58010000       0.37710000
O        0.66590000      -4.34910000       0.01040000
C        0.68350000      -2.94000000      -0.26280000
H        0.54430000       1.89360000       1.05150000
H        1.28490000       1.83220000      -0.57060000
H       -0.45790000       1.50280000      -0.37010000
H       -0.03330000      -0.29730000       2.06100000
H       -1.05840000      -0.58280000       0.64120000
H       -0.09800000      -2.59210000       3.14540000
H       -0.32050000      -4.04230000       2.04730000
H        2.32070000      -2.37280000       2.32210000
H        2.78270000      -3.89930000      -0.00940000
H        0.51190000      -2.61240000      -1.28040000
