19
Properties=species:S:1:pos:R:3 gdb_109023=T pbc="F F F"
C       -0.00670000       1.36150000      -0.00510000
O       -0.05090000      -0.06740000      -0.03390000
C       -1.27800000      -0.59330000      -0.03670000
N       -2.38730000       0.05280000      -0.06070000
C       -3.42570000      -0.94540000      -0.03230000
C       -3.52710000      -1.91080000      -1.20020000
C       -2.75040000      -2.32200000       0.02640000
C       -3.12810000      -3.49420000       0.88870000
N       -1.33960000      -1.97780000      -0.04960000
H        1.05150000       1.62520000      -0.00430000
H       -0.50780000       1.77810000      -0.88270000
H       -0.49910000       1.74570000       0.89260000
H       -4.32680000      -0.68880000       0.51550000
H       -4.48910000      -2.39040000      -1.35000000
H       -2.97940000      -1.67990000      -2.10830000
H       -4.21570000      -3.59460000       0.93620000
H       -2.72880000      -4.43430000       0.48880000
H       -2.75710000      -3.37300000       1.91330000
H       -0.67240000      -2.49140000       0.50810000
