14
Properties=species:S:1:pos:R:3 gdb_46181=T pbc="F F F"
O       -0.04840000       0.00340000       0.01710000
C       -0.04540000       1.19700000       0.02280000
N       -1.01420000       2.15620000       0.04270000
C       -0.13740000       3.32450000       0.03490000
C        1.08980000       2.32990000       0.01010000
C        1.90650000       2.33960000       1.21130000
C        2.55480000       2.33850000       2.22240000
C        1.86660000       2.35160000      -1.21710000
C        2.48170000       2.36050000      -2.24870000
H       -2.01940000       2.07040000       0.05900000
H       -0.21680000       3.94580000      -0.86010000
H       -0.18810000       3.93620000       0.93850000
H        3.14110000       2.33040000       3.10790000
H        3.03910000       2.36160000      -3.15280000
