17
Properties=species:S:1:pos:R:3 gdb_16625=T pbc="F F F"
C       -0.19070000       1.56560000       0.02510000
C        0.03640000       0.05450000      -0.04860000
C        0.84020000      -0.47210000      -1.22930000
C        2.31030000      -0.11930000      -1.34660000
C        1.88890000      -1.40820000      -0.68080000
N        1.73780000      -1.37610000       0.74570000
C        0.80710000      -0.46270000       1.18600000
O        0.64180000      -0.11680000       2.33460000
H        0.75330000       2.11200000      -0.06550000
H       -0.85500000       1.90270000      -0.77570000
H       -0.63800000       1.82240000       0.98880000
H       -0.94120000      -0.44570000      -0.03650000
H        0.31390000      -0.72830000      -2.14060000
H        2.74700000      -0.17830000      -2.33780000
H        2.72340000       0.65990000      -0.71390000
H        2.10520000      -2.37280000      -1.12510000
H        2.46870000      -1.66960000       1.37620000
