20
Properties=species:S:1:pos:R:3 gdb_26462=T pbc="F F F"
C       -0.30440000       1.61400000      -0.29410000
C       -0.03820000       0.12850000      -0.07650000
C       -1.27980000      -0.62260000       0.39180000
C        0.78040000      -0.58490000      -1.23830000
C        1.87760000      -0.74650000      -0.20410000
C        3.09910000      -1.12300000       0.30870000
C        3.07300000      -0.69320000       1.67450000
C        1.85790000      -0.07910000       1.94580000
N        1.15860000      -0.13340000       0.77160000
H        0.60310000       2.12990000      -0.61870000
H       -1.07660000       1.75330000      -1.05770000
H       -0.65600000       2.08590000       0.62950000
H       -2.07700000      -0.54050000      -0.35420000
H       -1.05900000      -1.68160000       0.55010000
H       -1.65530000      -0.20580000       1.33240000
H        0.32120000      -1.50640000      -1.60830000
H        1.00630000       0.06390000      -2.08980000
H        3.90920000      -1.63010000      -0.19100000
H        3.87150000      -0.82250000       2.39060000
H        1.47300000       0.36580000       2.84860000
