23
Properties=species:S:1:pos:R:3 gdb_68188=T pbc="F F F"
C       -0.02070000       1.53380000       0.06690000
C        0.02140000       0.02330000       0.03770000
C        0.98690000      -0.77070000      -0.89710000
C        0.69740000      -1.92570000       0.10220000
C        0.64080000      -0.82250000       1.19600000
C       -0.80040000      -2.21450000      -0.12950000
C       -1.10450000      -3.06100000      -1.36460000
O       -1.28370000      -2.88840000       1.03490000
C       -1.30540000      -0.72960000      -0.21260000
H        0.97460000       1.95680000       0.24110000
H       -0.39490000       1.93950000      -0.88060000
H       -0.68130000       1.89580000       0.86360000
H        0.71090000      -0.89170000      -1.94910000
H        2.01840000      -0.41590000      -0.82580000
H        1.34480000      -2.79880000       0.18920000
H        1.63440000      -0.46430000       1.47770000
H        0.03470000      -1.01810000       2.08190000
H       -0.69150000      -4.06710000      -1.24220000
H       -2.18840000      -3.15430000      -1.50940000
H       -0.69260000      -2.62380000      -2.27800000
H       -2.21860000      -3.07490000       0.90000000
H       -2.05090000      -0.53230000       0.56410000
H       -1.74350000      -0.48070000      -1.18560000
