16
Properties=species:S:1:pos:R:3 gdb_29123=T pbc="F F F"
C       -0.02980000       1.50550000      -0.01750000
C       -0.03860000       0.00670000      -0.00410000
C       -1.17060000      -0.74370000      -0.10680000
C       -1.14030000      -2.16950000      -0.09050000
O       -2.34400000      -2.81080000      -0.20120000
C        0.06140000      -2.79150000       0.03200000
N        1.20390000      -2.03400000       0.13570000
C        1.26700000      -0.64160000       0.12870000
O        2.34100000      -0.06080000       0.22750000
H        0.59100000       1.87860000      -0.83910000
H       -1.03900000       1.91140000      -0.11900000
H        0.42270000       1.89510000       0.90080000
H       -2.14190000      -0.26760000      -0.20560000
H       -2.20490000      -3.76290000      -0.17880000
H        0.18760000      -3.86720000       0.05440000
H        2.10080000      -2.48930000       0.22710000
