18
Properties=species:S:1:pos:R:3 gdb_22294=T pbc="F F F"
O       -0.02040000       1.36470000      -0.00550000
N        0.07920000      -0.03430000       0.01450000
C       -1.05950000      -0.61300000       0.00540000
C       -1.07170000      -2.11820000       0.02560000
C       -1.91480000      -2.66960000      -1.13830000
C       -3.33970000      -2.08590000      -1.12360000
C       -3.32720000      -0.56380000      -1.10460000
O       -4.00630000       0.10750000      -1.84180000
C       -2.40100000       0.07700000      -0.06350000
H        0.90440000       1.63120000      -0.02760000
H       -0.04460000      -2.48720000      -0.01480000
H       -1.50950000      -2.46110000       0.97490000
H       -1.42790000      -2.42060000      -2.08870000
H       -1.96170000      -3.76150000      -1.08140000
H       -3.93090000      -2.41490000      -1.98100000
H       -3.85560000      -2.42360000      -0.21250000
H       -2.90040000      -0.03690000       0.91140000
H       -2.30610000       1.14110000      -0.27000000
