18
Properties=species:S:1:pos:R:3 gdb_100849=T pbc="F F F"
C       -0.06060000       1.58310000      -0.03020000
C       -0.03090000       0.05230000      -0.01310000
C        0.73790000      -0.52990000      -1.20210000
O        2.07950000      -0.08680000      -1.26670000
C        0.68710000      -2.09650000      -1.23900000
C        1.29680000      -2.57420000      -2.56990000
O        0.67850000      -2.51410000      -3.59580000
C        1.39770000      -2.65920000      -0.09520000
N        2.00480000      -3.07300000       0.79760000
H        0.95260000       1.99280000      -0.04060000
H       -0.57920000       1.95720000      -0.91920000
H       -0.58020000       1.97090000       0.85020000
H        0.42770000      -0.30800000       0.91770000
H       -1.05310000      -0.34530000      -0.02650000
H        0.27740000      -0.19940000      -2.13930000
H        2.50320000      -0.27700000      -0.42020000
H       -0.36020000      -2.41590000      -1.22560000
H        2.33880000      -2.94640000      -2.52110000
