17
Properties=species:S:1:pos:R:3 gdb_55369=T pbc="F F F"
N        0.93730000      -0.06910000       0.64220000
C       -0.17050000       0.15780000      -0.09920000
O       -0.37710000       1.15250000      -0.76920000
C       -1.21900000      -0.95860000      -0.04470000
O       -0.72270000      -2.11840000       0.62610000
C       -1.77760000      -2.76130000       1.34690000
C       -2.80750000      -1.68400000       1.60820000
N       -2.19670000      -0.46910000       2.18360000
C       -2.45810000      -0.54580000       0.73180000
H        1.61710000       0.66640000       0.73870000
H        0.96530000      -0.87840000       1.23920000
H       -1.50110000      -1.18850000      -1.08220000
H       -2.22270000      -3.57180000       0.75020000
H       -1.34280000      -3.18800000       2.25600000
H       -3.83160000      -1.95190000       1.84330000
H       -2.91880000       0.09920000       2.61960000
H       -3.18840000       0.10430000       0.26660000
