23
Properties=species:S:1:pos:R:3 gdb_108923=T pbc="F F F"
C        0.15540000       1.46830000       0.34710000
C       -0.02670000       0.01630000      -0.12900000
C       -1.45330000      -0.44960000      -0.11080000
C       -2.17180000      -0.88230000      -1.15330000
C       -3.53970000      -1.35260000      -0.77100000
C       -4.71200000      -1.09360000      -1.68780000
C       -3.52660000      -2.56060000       0.14890000
C       -3.58050000      -1.17230000       0.74050000
C       -2.27220000      -0.51620000       1.17220000
H        1.20890000       1.76190000       0.30600000
H       -0.41480000       2.15940000      -0.28170000
H       -0.18510000       1.59760000       1.37930000
H        0.37390000      -0.08840000      -1.14370000
H        0.58050000      -0.64000000       0.51120000
H       -1.80870000      -0.93050000      -2.17580000
H       -4.60090000      -1.63030000      -2.63770000
H       -5.65010000      -1.42570000      -1.23150000
H       -4.81050000      -0.02680000      -1.91920000
H       -4.43640000      -3.15060000       0.21220000
H       -2.60930000      -3.13530000       0.23250000
H       -4.50060000      -0.87380000       1.23050000
H       -1.75260000      -1.08520000       1.95580000
H       -2.44550000       0.48540000       1.58860000
