11
Properties=species:S:1:pos:R:3 gdb_3811=T pbc="F F F"
C       -0.03310000       1.41360000       0.00890000
O        0.00410000      -0.02010000       0.00290000
C       -1.17830000      -0.62570000       0.00980000
N       -2.34130000      -0.02810000       0.02150000
O       -3.26380000      -1.05280000       0.02470000
N       -2.65520000      -2.27410000       0.01480000
C       -1.37620000      -2.03940000       0.00550000
H        1.00760000       1.73610000       0.00170000
H       -0.55670000       1.78650000      -0.87620000
H       -0.54200000       1.77940000       0.90550000
H       -0.64650000      -2.83290000      -0.00360000
