17
Properties=species:S:1:pos:R:3 gdb_123715=T pbc="F F F"
C       -0.01570000       1.48360000      -0.13750000
C        1.35580000       2.06850000       0.10910000
C        2.45170000       1.35820000       0.37540000
C        2.51300000      -0.14660000       0.47630000
C        1.16820000      -0.75790000       0.23610000
C        0.04770000      -0.00320000      -0.03780000
N       -0.97420000      -0.88130000      -0.19640000
N       -0.59440000      -2.16860000      -0.04340000
C        0.70730000      -2.09440000       0.21940000
H       -0.73360000       1.90200000       0.58490000
H       -0.38360000       1.80220000      -1.12510000
H        1.42120000       3.15210000       0.05880000
H        3.39020000       1.88300000       0.53690000
H        3.25750000      -0.52710000      -0.23920000
H        2.90750000      -0.42700000       1.46470000
H       -1.93760000      -0.68190000      -0.40570000
H        1.26780000      -3.00310000       0.38730000
