22
Properties=species:S:1:pos:R:3 gdb_98465=T pbc="F F F"
C        0.47090000       0.11270000       1.22650000
C       -0.12620000      -0.08140000      -0.17530000
C       -1.48770000      -0.76290000      -0.18940000
C       -1.80570000      -1.70550000      -1.34580000
C       -1.51760000      -2.26770000       0.00960000
C       -2.71310000      -0.04860000       0.33540000
O       -3.77350000      -0.63490000       0.50010000
N       -2.57520000       1.28670000       0.58910000
C       -3.68460000       2.10940000       1.02970000
H        1.45690000       0.58430000       1.17030000
H       -0.16620000       0.73760000       1.85970000
H        0.58590000      -0.85100000       1.73220000
H       -0.17240000       0.88030000      -0.70670000
H        0.56250000      -0.69450000      -0.76800000
H       -2.83490000      -1.72680000      -1.68300000
H       -1.05570000      -1.79900000      -2.12400000
H       -0.56410000      -2.75780000       0.17550000
H       -2.35540000      -2.65910000       0.57270000
H       -1.70050000       1.73530000       0.38190000
H       -3.97980000       2.83550000       0.26280000
H       -4.52480000       1.44270000       1.22560000
H       -3.43220000       2.65330000       1.94630000
