12
Properties=species:S:1:pos:R:3 gdb_130505=T pbc="F F F"
O       -0.11840000       1.27050000       0.01020000
N        1.15520000       1.87600000       0.00110000
C        2.04150000       0.92140000      -0.01270000
C        1.42210000      -0.36710000      -0.01370000
C        0.05570000      -0.06000000       0.00130000
N       -0.93810000      -0.92980000       0.00620000
C       -0.50530000      -2.19280000      -0.00490000
N        0.76460000      -2.63550000      -0.01960000
C        1.73510000      -1.72490000      -0.02410000
H        3.09000000       1.18440000      -0.02150000
H       -1.27450000      -2.96000000      -0.00150000
H        2.75970000      -2.08870000      -0.03610000
