16
Properties=species:S:1:pos:R:3 gdb_128219=T pbc="F F F"
C       -0.01260000       1.44770000       0.14430000
N        0.01740000       0.03450000      -0.19750000
C       -1.15150000      -0.70430000      -0.08960000
C       -1.30500000      -2.06650000      -0.01210000
N       -2.66750000      -2.31110000       0.01650000
C       -3.26260000      -3.57360000       0.09590000
O       -4.44070000      -3.78580000       0.12600000
N       -3.39390000      -1.16880000      -0.03490000
C       -2.49580000      -0.20550000      -0.09730000
H        0.99560000       1.85540000       0.04380000
H       -0.65600000       1.98980000      -0.55620000
H       -0.37200000       1.64990000       1.16530000
H        0.83130000      -0.44580000       0.15580000
H       -0.58860000      -2.87100000       0.02060000
H       -2.48410000      -4.35900000       0.12730000
H       -2.82050000       0.82360000      -0.14620000
